
#######################################################################
#
#                 Cambridge Crystallographic Data Centre
#                                CCDC
#
#######################################################################
#
# If this CIF has been generated from an entry in the Cambridge
# Structural Database, then it will include bibliographic, chemical,
# crystal, experimental, refinement or atomic coordinate data resulting
# from the CCDC's data processing and validation procedures.
#
#######################################################################

data_CSD_CIF_ACPNEU
_audit_creation_date 1972-12-21
_audit_creation_method CSD-ConQuest-V1
_database_code_CSD ACPNEU
_database_code_depnum_ccdc_archive 'CCDC 1100950'
_chemical_formula_sum 'C27 H29 Eu1 N2 O6'
_chemical_formula_moiety
;
C27 H29 Eu1 N2 O6
;
_journal_coden_Cambridge 42
_journal_volume 34
_journal_year 1972
_journal_page_first 501
_journal_name_full 'J.Inorg.Nucl.Chem. '
loop_
_publ_author_name
"W.H.Watson"
"R.J.Williams"
"N.R.Stemple"
_chemical_name_systematic
;
tris(Acetylacetonato)-(1,10-phenanthroline)-europium(iii)
;
_cell_volume   3054.904
_exptl_crystal_density_diffrn 1.37
_diffrn_ambient_temperature ?
_diffrn_special_details
;
The study was carried out at room temperature,in the range 283-303K

;
#These two values have been output from a single CSD field.
_refine_ls_R_factor_gt 0.065
_refine_ls_wR_factor_gt 0.065
_symmetry_cell_setting monoclinic
_symmetry_space_group_name_H-M 'P 21/c'
_symmetry_Int_Tables_number 14
loop_
_symmetry_equiv_pos_site_id
_symmetry_equiv_pos_as_xyz
1 x,y,z
2 -x,1/2+y,1/2-z
3 -x,-y,-z
4 x,-1/2-y,-1/2+z
_cell_length_a 9.670(8)
_cell_length_b 21.339(5)
_cell_length_c 16.497(5)
_cell_angle_alpha 90
_cell_angle_beta 116.18(17)
_cell_angle_gamma 90
_cell_formula_units_Z 4
loop_
_atom_type_symbol
_atom_type_radius_bond
C 0.68
Eu 1.99
N 0.68
O 0.68
loop_
_atom_site_label
_atom_site_type_symbol
_atom_site_fract_x
_atom_site_fract_y
_atom_site_fract_z
C1 C 0.11480 -0.23240 -0.04810
C2 C -0.12010 -0.12010 0.15950
C3 C -0.15690 -0.18470 0.03650
C4 C -0.09330 -0.21350 -0.01490
C5 C 0.01350 -0.26680 -0.13200
C6 C 0.40910 -0.29450 0.15590
C7 C 0.30050 -0.33120 0.16620
C8 C 0.18700 -0.30960 0.18720
C9 C 0.54060 -0.32390 0.13410
C10 C 0.06800 -0.35740 0.19610
C11 C -0.13410 -0.27370 -0.15200
C12 C 0.28130 -0.05360 0.01230
C13 C 0.24510 0.00090 0.04250
C14 C 0.18950 0.00160 0.11140
C15 C 0.31690 -0.04980 -0.07290
C16 C 0.14910 0.06820 0.14240
C17 C -0.20630 -0.24770 -0.09770
C18 C 0.32350 -0.09470 0.36730
C19 C 0.45760 -0.06790 0.38110
C20 C 0.53070 -0.07910 0.32110
C21 C 0.24130 -0.07590 0.42890
C22 C 0.69100 -0.04200 0.35460
C23 C -0.36650 -0.25430 -0.11650
C24 C -0.41650 -0.22660 -0.06100
C25 C -0.31630 -0.18970 0.01650
C26 C -0.36970 -0.15940 0.07250
C27 C -0.27340 -0.12390 0.14450
Eu1 Eu 0.24128 -0.15400 0.16044
N1 N 0.05750 -0.20900 0.00650
N2 N -0.05810 -0.15010 0.11000
O1 O 0.40940 -0.23370 0.15020
O2 O 0.16790 -0.25190 0.20010
O3 O 0.28810 -0.10870 0.04470
O4 O 0.17470 -0.04700 0.15290
O5 O 0.24580 -0.13390 0.30350
O6 O 0.48970 -0.11430 0.25570
#END

data_CSD_CIF_ACPNEU01
_audit_creation_date 1980-11-04
_audit_creation_method CSD-ConQuest-V1
_database_code_CSD ACPNEU01
_chemical_formula_sum 'C27 H29 Eu1 N2 O6'
_chemical_formula_moiety
;
C27 H29 Eu1 N2 O6
;
_journal_coden_Cambridge 51
_journal_volume 8
_journal_year 1968
_journal_page_first 117
_journal_name_full 'Z.Chem. '
loop_
_publ_author_name
"W.Schmidt"
"E.Butter"
_chemical_name_systematic
;
tris(Acetylacetonato)-(1,10-phenanthroline)-europium(iii)
;
_cell_volume   2916.292
_exptl_crystal_density_diffrn 1.43
_exptl_special_details
;
No information on connectivity available

;
_diffrn_ambient_temperature ?
_diffrn_special_details
;
The study was carried out at room temperature,in the range 283-303K

;
_symmetry_cell_setting monoclinic
_symmetry_space_group_name_H-M 'P 21/n'
_symmetry_Int_Tables_number 14
_cell_length_a 14.6(1)
_cell_length_b 21.1(1)
_cell_length_c 9.59(1)
_cell_angle_alpha 90
_cell_angle_beta 99.2(5)
_cell_angle_gamma 90
_cell_formula_units_Z 4
#END

data_CSD_CIF_ALISUK
_audit_creation_date 2011-03-31
_audit_creation_method CSD-ConQuest-V1
_database_code_CSD ALISUK
_database_code_depnum_ccdc_archive 'CCDC 777692'
_chemical_formula_sum 'C27 H27 N4 O6 S1 Tb1'
_chemical_formula_moiety
;
C27 H27 N4 O6 S1 Tb1
;
_journal_coden_Cambridge 155
_journal_volume 365
_journal_year 2011
_journal_page_first 152
_journal_name_full 'Inorg.Chim.Acta '
loop_
_publ_author_name
"H.Gallardo"
"G.Conte"
"A.J.Bortoluzzi"
"I.H.Bechtold"
"A.Pereira"
"W.G.Quirino"
"C.Legnani"
"M.Cremona"
_chemical_name_systematic
;
tris(Acetylacetonato)-([1,2,5]thiadiazolo[3,4-f][1,10]phenanthroline)-terbium(
iii)
;
_cell_volume   1400.293
_exptl_crystal_colour 'colorless'
_exptl_crystal_density_diffrn 1.647
_exptl_crystal_description 'prism'
_diffrn_ambient_temperature 293
#These two values have been output from a single CSD field.
_refine_ls_R_factor_gt 0.0208
_refine_ls_wR_factor_gt 0.0208
_symmetry_cell_setting triclinic
_symmetry_space_group_name_H-M 'P -1'
_symmetry_Int_Tables_number 2
loop_
_symmetry_equiv_pos_site_id
_symmetry_equiv_pos_as_xyz
1 x,y,z
2 -x,-y,-z
_cell_length_a 9.464(3)
_cell_length_b 9.531(1)
_cell_length_c 16.012(1)
_cell_angle_alpha 94.047(1)
_cell_angle_beta 99.444(1)
_cell_angle_gamma 99.003(2)
_cell_formula_units_Z 2
loop_
_atom_type_symbol
_atom_type_radius_bond
C 0.68
H 0.23
N 0.68
O 0.68
S 1.02
Tb 1.94
loop_
_atom_site_label
_atom_site_type_symbol
_atom_site_fract_x
_atom_site_fract_y
_atom_site_fract_z
Tb1 Tb 0.227857(16) 0.050061(14) 0.767583(9)
S1 S -0.48478(11) -0.57285(11) 0.62796(8)
N1 N -0.3133(3) -0.5852(3) 0.6425(2)
C1 C -0.2412(4) -0.4522(3) 0.6683(2)
C2 C -0.0849(3) -0.4137(3) 0.6884(2)
C3 C 0.0104(4) -0.5117(3) 0.6854(2)
H1 H -0.02570 -0.60860 0.67220
C4 C 0.1568(4) -0.4635(3) 0.7020(2)
H2 H 0.22180 -0.52700 0.70030
C5 C 0.2070(4) -0.3180(3) 0.7214(2)
H3 H 0.30680 -0.28600 0.73150
N2 N 0.1192(3) -0.2213(3) 0.72640(16)
C6 C -0.0254(3) -0.2681(3) 0.71022(18)
C7 C -0.1199(3) -0.1608(3) 0.71441(18)
N3 N -0.0540(3) -0.0222(2) 0.73379(16)
C8 C -0.1387(4) 0.0761(3) 0.7396(2)
H4 H -0.09400 0.17090 0.75310
C9 C -0.2888(4) 0.0459(4) 0.7269(2)
H5 H -0.34300 0.11850 0.73230
C10 C -0.3561(4) -0.0930(4) 0.7060(2)
H6 H -0.45690 -0.11640 0.69720
C11 C -0.2717(3) -0.1988(3) 0.69824(19)
C12 C -0.3322(3) -0.3492(3) 0.6737(2)
N4 N -0.4737(3) -0.4020(3) 0.6522(2)
C13 C 0.1237(5) 0.4539(4) 0.9122(3)
H7 H 0.02660 0.43200 0.88020
H8 H 0.16140 0.55320 0.91110
H9 H 0.12270 0.43340 0.96990
C14 C 0.2186(4) 0.3645(3) 0.8733(2)
O1 O 0.1546(2) 0.2479(2) 0.83187(15)
C15 C 0.3671(4) 0.4135(4) 0.8832(2)
H10 H 0.40430 0.49810 0.91770
C16 C 0.4650(4) 0.3464(3) 0.8457(2)
O2 O 0.4311(3) 0.2310(2) 0.79814(16)
C17 C 0.6228(4) 0.4156(4) 0.8601(3)
H11 H 0.68260 0.34320 0.85850
H12 H 0.64790 0.47060 0.91470
H13 H 0.63840 0.47720 0.81640
C18 C 0.5792(4) -0.1808(4) 0.9123(3)
H14 H 0.57640 -0.25810 0.86990
H15 H 0.59440 -0.21390 0.96780
H16 H 0.65720 -0.10530 0.90850
C19 C 0.4375(4) -0.1260(3) 0.8977(2)
O3 O 0.4131(2) -0.0597(2) 0.83268(14)
C20 C 0.3400(4) -0.1528(4) 0.9538(2)
H17 H 0.36690 -0.20470 0.99910
C21 C 0.2060(4) -0.1079(3) 0.9472(2)
O4 O 0.1574(3) -0.0328(3) 0.89094(15)
C22 C 0.1095(6) -0.1506(5) 1.0108(3)
H18 H 0.09840 -0.06690 1.04450
H19 H 0.15300 -0.21390 1.04730
H20 H 0.01590 -0.19810 0.98120
C23 C 0.0786(6) 0.2611(5) 0.5167(3)
H21 H -0.00970 0.27460 0.53580
H22 H 0.05670 0.22120 0.45830
H23 H 0.14230 0.35130 0.52150
C24 C 0.1519(4) 0.1607(4) 0.5706(2)
O5 O 0.1485(3) 0.1738(2) 0.64891(14)
C25 C 0.2188(5) 0.0614(4) 0.5306(2)
H24 H 0.21050 0.05830 0.47180
C26 C 0.2966(4) -0.0330(4) 0.5718(2)
O6 O 0.3207(2) -0.0363(2) 0.65131(14)
C27 C 0.3555(6) -0.1435(5) 0.5203(3)
H25 H 0.45970 -0.12140 0.53000
H26 H 0.31820 -0.14240 0.46090
H27 H 0.32570 -0.23650 0.53740
#END

data_CSD_CIF_BOLRUR
_audit_creation_date 2014-10-02
_audit_creation_method CSD-ConQuest-V1
_database_code_CSD BOLRUR
_database_code_depnum_ccdc_archive 'CCDC 1007462'
_chemical_formula_sum 'C39 H39 Dy1 N4 O7'
_chemical_formula_moiety
;
C37 H33 Dy1 N4 O6,C2 H6 O1
;
_journal_coden_Cambridge 222
_journal_volume 43
_journal_year 2014
_journal_page_first 16659
_journal_name_full 'Dalton Trans. '
loop_
_publ_author_name
"Gong-Jun Chen"
"Yang Zhou"
"Guo-Xia Jin"
"Yu-Bin Dong"
_chemical_name_systematic
;
(benzo[i]dipyrido[3,2-a:2',3'-c]phenazine)-tris(acetyl acetonato)-dysprosium 
ethanol solvate
;
_cell_volume   1774.795
_exptl_crystal_colour 'red'
_exptl_crystal_density_diffrn 1.567
_exptl_crystal_description 'prism'
_diffrn_ambient_temperature 293
#These two values have been output from a single CSD field.
_refine_ls_R_factor_gt 0.048
_refine_ls_wR_factor_gt 0.048
_symmetry_cell_setting triclinic
_symmetry_space_group_name_H-M 'P -1'
_symmetry_Int_Tables_number 2
loop_
_symmetry_equiv_pos_site_id
_symmetry_equiv_pos_as_xyz
1 x,y,z
2 -x,-y,-z
_cell_length_a 10.4228(12)
_cell_length_b 12.4496(14)
_cell_length_c 14.2131(10)
_cell_angle_alpha 103.621(8)
_cell_angle_beta 93.468(8)
_cell_angle_gamma 96.219(9)
_cell_formula_units_Z 2
loop_
_atom_type_symbol
_atom_type_radius_bond
C 0.68
H 0.23
Dy 1.92
N 0.68
O 0.68
loop_
_atom_site_label
_atom_site_type_symbol
_atom_site_fract_x
_atom_site_fract_y
_atom_site_fract_z
Dy1 Dy 0.90581(2) 0.217539(19) 0.340016(16)
O1 O 0.6929(3) 0.1944(3) 0.3853(2)
O2 O 0.9142(3) 0.3066(3) 0.5024(2)
O3 O 1.0529(3) 0.1332(3) 0.4176(2)
O4 O 0.8371(3) 0.0272(3) 0.2891(2)
O5 O 1.0919(3) 0.3463(3) 0.3528(2)
O6 O 1.0184(3) 0.1542(3) 0.2061(2)
N1 N 0.7540(3) 0.2111(3) 0.1897(3)
N2 N 0.8107(3) 0.4001(3) 0.3306(3)
N3 N 0.4170(4) 0.3677(3) 0.0410(3)
N4 N 0.4744(4) 0.5652(3) 0.1912(2)
C1 C 0.8438(5) 0.4948(4) 0.3983(3)
H1 H 0.90980 0.49720 0.44610
C2 C 0.7847(5) 0.5903(4) 0.4011(3)
H2 H 0.81270 0.65540 0.44860
C3 C 0.6848(4) 0.5872(4) 0.3331(3)
H3 H 0.64350 0.64990 0.33420
C4 C 0.6455(4) 0.4878(4) 0.2616(3)
C5 C 0.7123(4) 0.3973(4) 0.2624(3)
C6 C 0.6818(4) 0.2938(4) 0.1865(3)
C7 C 0.7301(5) 0.1197(4) 0.1170(4)
H4 H 0.78070 0.06260 0.11730
C8 C 0.6352(5) 0.1045(4) 0.0414(4)
H5 H 0.62240 0.03880 -0.00730
C9 C 0.5611(5) 0.1870(4) 0.0396(3)
H6 H 0.49550 0.17770 -0.01010
C10 C 0.5833(4) 0.2858(4) 0.1121(3)
C11 C 0.5094(4) 0.3789(4) 0.1118(3)
C12 C 0.5391(4) 0.4801(4) 0.1863(3)
C13 C 0.3036(5) 0.6427(4) 0.1201(3)
H7 H 0.32140 0.70710 0.17000
C14 C 0.2519(4) 0.4497(4) -0.0312(3)
H8 H 0.23520 0.38600 -0.08190
C15 C 0.3769(4) 0.5555(4) 0.1191(3)
C16 C 0.3499(4) 0.4553(4) 0.0425(3)
C17 C 0.2038(5) 0.6354(4) 0.0477(3)
C18 C 0.1797(5) 0.5359(4) -0.0305(3)
C19 C 0.0786(5) 0.5320(5) -0.1054(3)
H9 H 0.06180 0.46910 -0.15690
C20 C 0.1259(5) 0.7215(5) 0.0485(4)
H10 H 0.13910 0.78520 0.09950
C21 C 0.0311(5) 0.7124(5) -0.0247(4)
H11 H -0.01940 0.76990 -0.02350
C22 C 0.0091(5) 0.6149(5) -0.1033(4)
H12 H -0.05470 0.60990 -0.15330
C23 C 0.4935(5) 0.1953(6) 0.4569(5)
H13 H 0.45590 0.20520 0.39660
H14 H 0.45880 0.24290 0.51010
H15 H 0.47330 0.11910 0.45950
C24 C 0.6387(5) 0.2249(4) 0.4637(4)
C25 C 0.7043(5) 0.2794(4) 0.5529(4)
H16 H 0.65600 0.29300 0.60640
C26 C 0.8372(5) 0.3155(4) 0.5686(3)
C27 C 0.8965(5) 0.3712(4) 0.6704(3)
H17 H 0.97250 0.33830 0.68400
H18 H 0.83490 0.36130 0.71620
H19 H 0.91960 0.44930 0.67580
C28 C 1.1973(5) 0.0182(5) 0.4660(4)
H20 H 1.23850 0.08870 0.50490
H21 H 1.25850 -0.01810 0.42590
H22 H 1.16660 -0.02760 0.50770
C29 C 1.0849(5) 0.0365(4) 0.4026(4)
C30 C 1.0185(5) -0.0557(5) 0.3323(4)
H23 H 1.05640 -0.12130 0.31970
C31 C 0.9005(5) -0.0559(5) 0.2805(4)
C32 C 0.8385(6) -0.1633(5) 0.2112(4)
H24 H 0.76630 -0.19460 0.23920
H25 H 0.90100 -0.21510 0.19970
H26 H 0.80890 -0.14840 0.15080
C33 C 1.3135(5) 0.4252(5) 0.3682(4)
H27 H 1.29680 0.45920 0.43350
H28 H 1.32020 0.48060 0.33120
H29 H 1.39310 0.39320 0.36910
C34 C 1.2036(5) 0.3349(4) 0.3221(3)
C35 C 1.2297(5) 0.2487(5) 0.2473(4)
H30 H 1.31510 0.24730 0.23210
C36 C 1.1371(5) 0.1637(5) 0.1930(4)
C37 C 1.1802(6) 0.0790(5) 0.1100(4)
H31 H 1.11170 0.05610 0.05850
H32 H 1.20090 0.01550 0.13240
H33 H 1.25550 0.11180 0.08630
C38 C 0.4764(9) 0.0940(7) 0.6875(6)
H34 H 0.53720 0.08890 0.63900
H35 H 0.46240 0.17030 0.71090
H36 H 0.39580 0.04990 0.65960
C39 C 0.5244(16) 0.0554(8) 0.7628(9)
H37 H 0.61470 0.04730 0.75390
H38 H 0.52300 0.11330 0.82180
O7 O 0.4807(11) -0.0201(13) 0.7758(8)
#END

data_CSD_CIF_DARTOH
_audit_creation_date 2012-07-02
_audit_creation_method CSD-ConQuest-V1
_database_code_CSD DARTOH
_database_code_depnum_ccdc_archive 'CCDC 806774'
_chemical_formula_sum 'C29 H29 Dy1 N4 O6'
_chemical_formula_moiety
;
C29 H29 Dy1 N4 O6
;
_journal_coden_Cambridge 1220
_journal_volume 18
_journal_year 2012
_journal_page_first 2484
_journal_name_full 'Chem.-Eur.J. '
loop_
_publ_author_name
"Gong-Jun Chen"
"Yun-Nan Guo"
"Jin-Lei Tian"
"Jinkui Tang"
"Wen Gu"
"Xin Liu"
"Shi-Ping Yan"
"Peng Cheng"
"Dai-Zheng Liao"
_chemical_name_systematic
;
tris(acetylacetonato)-(pyrazino[2,3-f][1,10]phenanthroline)-dysprosium(iii)
;
_cell_volume   1403.290
_exptl_crystal_colour 'colorless'
_exptl_crystal_density_diffrn 1.635
_exptl_crystal_description 'prism'
_diffrn_ambient_temperature 293
#These two values have been output from a single CSD field.
_refine_ls_R_factor_gt 0.0718
_refine_ls_wR_factor_gt 0.0718
_symmetry_cell_setting triclinic
_symmetry_space_group_name_H-M 'P -1'
_symmetry_Int_Tables_number 2
loop_
_symmetry_equiv_pos_site_id
_symmetry_equiv_pos_as_xyz
1 x,y,z
2 -x,-y,-z
_cell_length_a 9.4500(19)
_cell_length_b 9.5380(19)
_cell_length_c 16.081(3)
_cell_angle_alpha 100.18(3)
_cell_angle_beta 92.40(3)
_cell_angle_gamma 99.50(3)
_cell_formula_units_Z 2
loop_
_atom_type_symbol
_atom_type_radius_bond
C 0.68
H 0.23
Dy 1.92
N 0.68
O 0.68
loop_
_atom_site_label
_atom_site_type_symbol
_atom_site_fract_x
_atom_site_fract_y
_atom_site_fract_z
Dy1 Dy -0.05773(5) 0.77492(5) 0.23305(3)
O1 O 0.0273(7) 0.8424(7) 0.1104(4)
O2 O 0.0506(7) 0.5886(7) 0.1674(4)
O3 O -0.2390(7) 0.5762(7) 0.2082(5)
O4 O -0.2528(7) 0.8457(7) 0.1688(4)
O5 O -0.1846(7) 0.8582(7) 0.3507(4)
O6 O 0.0221(7) 0.6823(7) 0.3464(4)
N1 N 0.2126(7) 0.8825(8) 0.2730(5)
N2 N 0.0141(7) 1.0537(8) 0.2657(5)
N3 N 0.5896(8) 1.2963(10) 0.3571(6)
N4 N 0.3834(9) 1.4776(9) 0.3492(6)
C1 C 0.3094(10) 0.7960(11) 0.2765(6)
H1 H 0.27760 0.69650 0.26720
C2 C 0.4549(10) 0.8482(11) 0.2933(6)
H2 H 0.51930 0.78420 0.29290
C3 C 0.5031(10) 0.9910(12) 0.3100(6)
H3 H 0.60110 1.02670 0.32110
C4 C 0.4044(10) 1.0867(10) 0.3108(6)
C5 C 0.4476(10) 1.2416(11) 0.3326(6)
C6 C 0.6210(13) 1.4383(14) 0.3771(8)
H4 H 0.71570 1.48160 0.39440
C7 C 0.5184(13) 1.5256(13) 0.3734(8)
H5 H 0.54800 1.62510 0.38910
C8 C 0.3477(9) 1.332(1) 0.3288(6)
C9 C 0.1971(9) 1.2689(10) 0.3027(6)
C10 C 0.0917(10) 1.3549(10) 0.2947(6)
H6 H 0.11660 1.45520 0.30540
C11 C -0.048(1) 1.2897(11) 0.2709(6)
H7 H -0.11880 1.34400 0.26260
C12 C -0.0802(10) 1.1418(12) 0.2597(6)
H8 H -0.17620 1.09910 0.24680
C13 C 0.1535(9) 1.1204(10) 0.2862(6)
C14 C 0.2596(9) 1.0266(10) 0.2894(6)
C15 C -0.2689(12) 0.9403(14) 0.4827(7)
H9 H -0.28850 1.02040 0.45810
H10 H -0.22260 0.97570 0.53850
H11 H -0.35750 0.87660 0.48620
C16 C -0.1729(10) 0.8601(11) 0.4290(6)
C17 C -0.0729(11) 0.7921(12) 0.4684(6)
H12 H -0.06910 0.80210 0.52700
C18 C 0.0185(11) 0.7127(11) 0.4254(7)
C19 C 0.1265(13) 0.6544(14) 0.4765(7)
H13 H 0.10490 0.55060 0.46540
H14 H 0.12110 0.69000 0.53570
H15 H 0.22170 0.68570 0.46060
C20 C 0.1756(11) 0.4269(12) 0.0891(7)
H16 H 0.26050 0.43530 0.12590
H17 H 0.19890 0.40580 0.03120
H18 H 0.10370 0.35010 0.10020
C21 C 0.120(1) 0.5642(11) 0.1044(7)
C22 C 0.1513(10) 0.6609(13) 0.0483(7)
H19 H 0.20640 0.63430 0.00350
C23 C 0.1058(11) 0.7925(12) 0.0550(7)
C24 C -0.3521(10) 0.5387(11) 0.1576(6)
C25 C -0.4122(11) 0.6303(12) 0.1150(7)
H20 H -0.49030 0.58970 0.07620
C26 C -0.3653(10) 0.7783(12) 0.1255(6)
C27 C 0.1516(14) 0.8875(14) -0.0089(8)
H21 H 0.06780 0.90430 -0.03880
H22 H 0.20980 0.84000 -0.04840
H23 H 0.20600 0.97820 0.02010
C28 C -0.4515(11) 0.8702(13) 0.0849(7)
H24 H -0.44450 0.96280 0.12140
H25 H -0.55040 0.82340 0.07590
H26 H -0.41470 0.88330 0.03160
C29 C -0.4182(12) 0.3801(11) 0.1438(7)
H27 H -0.43810 0.34310 0.08420
H28 H -0.50610 0.36880 0.17170
H29 H -0.35230 0.32770 0.16670
#END

data_CSD_CIF_DARTUN
_audit_creation_date 2012-07-02
_audit_creation_method CSD-ConQuest-V1
_database_code_CSD DARTUN
_database_code_depnum_ccdc_archive 'CCDC 806780'
_chemical_formula_sum 'C34 H35 Dy1 N4 O7'
_chemical_formula_moiety
;
C33 H31 Dy1 N4 O6,C1 H4 O1
;
_journal_coden_Cambridge 1220
_journal_volume 18
_journal_year 2012
_journal_page_first 2484
_journal_name_full 'Chem.-Eur.J. '
loop_
_publ_author_name
"Gong-Jun Chen"
"Yun-Nan Guo"
"Jin-Lei Tian"
"Jinkui Tang"
"Wen Gu"
"Xin Liu"
"Shi-Ping Yan"
"Peng Cheng"
"Dai-Zheng Liao"
_chemical_name_systematic
;
tris(acetylacetonato)-(dipyrido[3,2-a:2',3'-c]phenazine)-dysprosium(iii) 
methanol solvate
;
_cell_volume   1583.067
_exptl_crystal_colour 'colorless'
_exptl_crystal_density_diffrn 1.622
_exptl_crystal_description 'prism'
_diffrn_ambient_temperature 293
#These two values have been output from a single CSD field.
_refine_ls_R_factor_gt 0.1285
_refine_ls_wR_factor_gt 0.1285
_symmetry_cell_setting triclinic
_symmetry_space_group_name_H-M 'P -1'
_symmetry_Int_Tables_number 2
loop_
_symmetry_equiv_pos_site_id
_symmetry_equiv_pos_as_xyz
1 x,y,z
2 -x,-y,-z
_cell_length_a 9.6410(19)
_cell_length_b 12.649(3)
_cell_length_c 13.517(3)
_cell_angle_alpha 76.96(3)
_cell_angle_beta 80.35(3)
_cell_angle_gamma 88.41(3)
_cell_formula_units_Z 2
loop_
_atom_type_symbol
_atom_type_radius_bond
C 0.68
H 0.23
Dy 1.92
N 0.68
O 0.68
loop_
_atom_site_label
_atom_site_type_symbol
_atom_site_fract_x
_atom_site_fract_y
_atom_site_fract_z
C1 C 0.517(3) 0.065(2) 0.2702(19)
H1 H 0.49070 0.13710 0.23850
H2 H 0.61730 0.06230 0.26660
H3 H 0.47240 0.04750 0.34100
Dy1 Dy 0.10235(9) 0.76657(8) 0.33216(8)
C2 C 0.3315(17) 0.5780(15) 0.2413(14)
O1 O -0.0609(14) 0.8561(11) 0.426(1)
O2 O 0.0841(12) 0.6757(10) 0.5030(9)
N1 N 0.2204(13) 0.5854(11) 0.3175(11)
O3 O 0.3181(12) 0.7866(10) 0.3796(11)
O4 O -0.0095(13) 0.8349(11) 0.1929(10)
O5 O 0.1617(12) 0.9519(10) 0.2774(10)
C3 C 0.7970(18) 0.3118(16) 0.0786(15)
H4 H 0.77880 0.25040 0.13180
C4 C 0.7140(18) 0.4028(17) 0.0802(14)
N2 N 0.2841(13) 0.7657(12) 0.1715(11)
C5 C 0.4043(17) 0.4892(14) 0.2384(13)
O6 O -0.0872(12) 0.6516(10) 0.3451(10)
C6 C 0.932(2) 0.405(2) -0.0806(16)
H5 H 1.00300 0.40450 -0.13640
C7 C -0.180(2) 0.920(2) 0.0973(18)
H6 H -0.14240 0.98770 0.10160
H7 H -0.28050 0.92200 0.10860
H8 H -0.14620 0.90610 0.03040
N3 N 0.6059(14) 0.3977(12) 0.1574(11)
C8 C 0.3655(19) 0.7673(14) 0.4617(15)
N4 N 0.6685(14) 0.5858(13) 0.0046(10)
C9 C 0.151(2) 0.6783(14) 0.5703(16)
C10 C 0.091(2) 1.0369(19) 0.2749(16)
C11 C 0.857(2) 0.4913(18) -0.0771(15)
H9 H 0.87960 0.55220 -0.13040
C12 C 0.5644(17) 0.5816(15) 0.0811(15)
C13 C 0.4772(16) 0.6806(14) 0.0835(14)
C14 C 0.5002(18) 0.7760(16) 0.0082(15)
H10 H 0.57100 0.77950 -0.04840
C15 C 0.3637(19) 0.3922(15) 0.3124(13)
H11 H 0.41160 0.32770 0.31070
C16 C -0.201(2) 0.6637(16) 0.3138(17)
C17 C 0.5281(19) 0.4873(15) 0.1575(14)
C18 C 0.3669(16) 0.6808(14) 0.1621(13)
C19 C 0.2884(18) 0.7186(14) 0.5590(15)
H12 H 0.32990 0.71310 0.61730
C20 C 0.7456(19) 0.4987(17) 0.0019(16)
C21 C 0.4208(18) 0.8625(15) 0.0168(15)
H13 H 0.43810 0.92760 -0.03190
C22 C -0.132(3) 0.8292(19) 0.1789(17)
C23 C -0.0978(18) 0.9538(19) 0.4102(15)
C24 C 0.3133(18) 0.8539(15) 0.0986(15)
H14 H 0.25740 0.91430 0.10270
C25 C 0.906(2) 0.3116(19) -0.0012(17)
H15 H 0.96200 0.25050 -0.00240
C26 C -0.033(2) 1.0393(18) 0.3345(16)
H16 H -0.08160 1.10440 0.32450
C27 C 0.252(2) 0.3983(16) 0.3855(16)
H17 H 0.22080 0.33650 0.43560
C28 C -0.2191(19) 0.9788(17) 0.4882(16)
H18 H -0.24660 0.91410 0.54000
H19 H -0.29730 1.00470 0.45420
H20 H -0.19030 1.03350 0.51980
C29 C 0.5077(19) 0.8092(16) 0.4610(17)
H21 H 0.56240 0.81680 0.39340
H22 H 0.55310 0.75930 0.51000
H23 H 0.49990 0.87850 0.47900
C30 C 0.079(2) 0.6321(17) 0.6798(15)
H24 H -0.00570 0.67100 0.69430
H25 H 0.14120 0.63920 0.72680
H26 H 0.05750 0.55680 0.68760
C31 C 0.1853(19) 0.4930(17) 0.3867(15)
H27 H 0.10970 0.49410 0.43920
C32 C -0.317(2) 0.5821(18) 0.3613(19)
H28 H -0.28210 0.52310 0.40870
H29 H -0.34900 0.55500 0.30820
H30 H -0.39320 0.61610 0.39730
C33 C -0.227(2) 0.751(2) 0.2364(18)
H31 H -0.31840 0.75750 0.22220
C34 C 0.152(3) 1.1372(18) 0.200(2)
H32 H 0.25170 1.14070 0.20020
H33 H 0.10810 1.20000 0.21960
H34 H 0.13640 1.13520 0.13220
O7 O 0.4740(16) -0.0094(14) 0.2185(12)
#END

data_CSD_CIF_EDANUS
_audit_creation_date 2002-01-23
_audit_creation_method CSD-ConQuest-V1
_database_code_CSD EDANUS
_database_code_depnum_ccdc_archive 'CCDC 175334'
_chemical_formula_sum 'C27 H29 N2 O6 Sm1'
_chemical_formula_moiety
;
C27 H29 N2 O6 Sm1
;
_journal_coeditor_code "IUCr WN6044"
_journal_coden_Cambridge 1370
_journal_volume 57
_journal_year 2001
_journal_page_first m457
_journal_name_full 'Acta Crystallogr.,Sect.E:Struct.Rep.Online '
loop_
_publ_author_name
"U.K.Urs"
"K.Shalini"
"T.S.Cameron"
"S.A.Shivashankar"
"T.N.Guru Row"
_chemical_name_systematic
;
tris(2,4-Pentanedionato)-(1,10-phenanthroline)-samarium(iii)
;
_cell_volume   2876.187
_exptl_crystal_colour 'colorless'
_exptl_crystal_density_diffrn 1.45
_exptl_special_details
;
isostructural with the praseodymium complex

;
_exptl_crystal_description 'prism'
_exptl_crystal_preparation 'aqueous ethanol'
_diffrn_ambient_temperature 173
_diffrn_special_details
;
The crystal was found to be a non-merohedral twin with two components; 
TwinSolve was used to process the data
;
#These two values have been output from a single CSD field.
_refine_ls_R_factor_gt 0.0729
_refine_ls_wR_factor_gt 0.0729
_symmetry_cell_setting monoclinic
_symmetry_space_group_name_H-M 'P 21/n'
_symmetry_Int_Tables_number 14
loop_
_symmetry_equiv_pos_site_id
_symmetry_equiv_pos_as_xyz
1 x,y,z
2 1/2+x,1/2-y,1/2+z
3 -x,-y,-z
4 -1/2-x,-1/2+y,-1/2-z
_cell_length_a 9.432(2)
_cell_length_b 20.957(5)
_cell_length_c 14.728(3)
_cell_angle_alpha 90
_cell_angle_beta 98.899(9)
_cell_angle_gamma 90
_cell_formula_units_Z 4
loop_
_atom_type_symbol
_atom_type_radius_bond
C 0.68
H 0.23
N 0.68
O 0.68
Sm 1.80
loop_
_atom_site_label
_atom_site_type_symbol
_atom_site_fract_x
_atom_site_fract_y
_atom_site_fract_z
Sm1 Sm 0.41619(4) 0.154403(16) 0.16003(2)
O1 O 0.2562(5) 0.1074(2) 0.0416(3)
O2 O 0.4770(5) 0.0445(2) 0.1545(3)
O3 O 0.5312(5) 0.2539(2) 0.2005(3)
C1 C 0.7762(7) 0.1213(3) 0.1610(5)
H1 H 0.75670 0.09730 0.21240
O4 O 0.2371(5) 0.2346(2) 0.1495(3)
C2 C 0.6053(9) 0.2482(3) -0.0997(5)
C3 C 0.3390(8) 0.2350(3) -0.0540(5)
H2 H 0.24550 0.23150 -0.03810
C4 C 0.4191(8) -0.0047(3) 0.1132(5)
C5 C 0.9171(8) 0.1225(3) 0.1439(6)
H3 H 0.99070 0.09940 0.18130
C6 C 0.2301(7) 0.0510(4) 0.0103(5)
N1 N 0.4474(6) 0.2098(3) 0.0033(4)
C7 C 0.3529(10) 0.2663(4) -0.1355(5)
H4 H 0.27150 0.28230 -0.17510
C8 C 0.4882(10) -0.0675(4) 0.1437(6)
H5 H 0.54920 -0.06220 0.20330
H6 H 0.54670 -0.08220 0.09820
H7 H 0.41350 -0.09920 0.14920
C9 C 0.2343(8) 0.2952(4) 0.1499(5)
C10 C 0.0896(9) 0.3260(4) 0.1337(7)
H8 H 0.04260 0.31670 0.07100
H9 H 0.10020 0.37220 0.14180
H10 H 0.03100 0.30910 0.17770
C11 C 0.5805(7) 0.2154(3) -0.0200(5)
C12 C 0.6973(7) 0.1847(3) 0.0374(5)
C13 C 0.1114(9) 0.0466(4) -0.0711(5)
H11 H 0.02330 0.06510 -0.05480
H12 H 0.09450 0.00170 -0.08820
H13 H 0.13930 0.07000 -0.12310
C14 C 0.9460(8) 0.1583(4) 0.0711(5)
H14 H 1.04200 0.16190 0.05960
C15 C 0.7499(10) 0.2522(4) -0.1190(6)
H15 H 0.76830 0.27530 -0.17140
C16 C 0.8592(10) 0.2241(4) -0.0649(6)
H16 H 0.95340 0.22740 -0.07970
C17 C 0.8365(7) 0.1895(4) 0.0139(5)
C18 C 0.6206(10) 0.3590(4) 0.1927(7)
H17 H 0.68810 0.35150 0.24930
H18 H 0.58300 0.40260 0.19310
H19 H 0.67010 0.35340 0.13950
C19 C 0.3540(9) 0.3339(4) 0.1634(6)
H20 H 0.34000 0.37860 0.15640
C20 C 0.3025(9) -0.0034(4) 0.0452(6)
H21 H 0.26820 -0.04320 0.01980
C21 C 0.4963(9) 0.3114(4) 0.1869(5)
O5 O 0.2609(5) 0.1120(2) 0.2587(3)
O6 O 0.5553(5) 0.1351(2) 0.3041(3)
N2 N 0.6685(5) 0.1508(3) 0.1116(3)
C22 C 0.2860(9) 0.0777(4) 0.3312(6)
C23 C 0.5438(9) 0.0959(4) 0.3682(6)
C24 C 0.4162(9) 0.0687(4) 0.3837(6)
H22 H 0.41990 0.04140 0.43560
C25 C 0.4862(11) 0.2729(4) -0.1559(5)
H23 H 0.49920 0.29510 -0.21030
C26 C 0.6803(9) 0.0784(5) 0.4296(6)
H24 H 0.74150 0.05360 0.39470
H25 H 0.65780 0.05290 0.48130
H26 H 0.73070 0.11740 0.45300
C27 C 0.151(1) 0.0466(6) 0.3589(8)
H27 H 0.09170 0.07940 0.38200
H28 H 0.17950 0.01480 0.40710
H29 H 0.09580 0.02570 0.30520
#END

data_CSD_CIF_EKOMOH
_audit_creation_date 2011-05-12
_audit_creation_method CSD-ConQuest-V1
_database_code_CSD EKOMOH
_database_code_depnum_ccdc_archive 'CCDC 782173'
_chemical_formula_sum 'C29 H29 Eu1 N4 O6'
_chemical_formula_moiety
;
C29 H29 Eu1 N4 O6
;
_journal_coden_Cambridge 222
_journal_volume 39
_journal_year 2010
_journal_page_first 10637
_journal_name_full 'Dalton Trans. '
loop_
_publ_author_name
"Gong-Jun Chen"
"Xin Qiao"
"Jin-Lei Tian"
"Jing-Yuan Xu"
"Wen Gu"
"Xin Liu"
"Shi-Ping Yan"
_chemical_name_systematic
;
tris(acetylacetonato)-(pyrazino[2,3-f][1,10]phenanthroline)-europium(iii)
;
_cell_volume   1445.884
_exptl_crystal_colour 'colorless'
_exptl_crystal_density_diffrn 1.563
_exptl_special_details
;
cytotoxic activity

;
_exptl_crystal_description 'prism'
_diffrn_ambient_temperature 293
#These two values have been output from a single CSD field.
_refine_ls_R_factor_gt 0.0842
_refine_ls_wR_factor_gt 0.0842
_symmetry_cell_setting triclinic
_symmetry_space_group_name_H-M 'P -1'
_symmetry_Int_Tables_number 2
loop_
_symmetry_equiv_pos_site_id
_symmetry_equiv_pos_as_xyz
1 x,y,z
2 -x,-y,-z
_cell_length_a 9.5250(19)
_cell_length_b 9.6630(19)
_cell_length_c 16.224(3)
_cell_angle_alpha 100.16(3)
_cell_angle_beta 92.57(3)
_cell_angle_gamma 99.41(3)
_cell_formula_units_Z 2
loop_
_atom_type_symbol
_atom_type_radius_bond
C 0.68
H 0.23
Eu 1.98
N 0.68
O 0.68
loop_
_atom_site_label
_atom_site_type_symbol
_atom_site_fract_x
_atom_site_fract_y
_atom_site_fract_z
Eu1 Eu 0.55734(6) 0.72317(6) 0.26768(3)
O1 O 0.4712(8) 0.6597(9) 0.3922(5)
O2 O 0.4462(8) 0.9109(8) 0.3327(5)
O3 O 0.7430(9) 0.9251(8) 0.2949(6)
O4 O 0.7568(7) 0.6500(8) 0.3332(5)
O5 O 0.4751(8) 0.8157(8) 0.1517(5)
N1 N 0.2838(9) 0.6139(10) 0.2271(5)
N2 N 0.4813(9) 0.4402(9) 0.2347(5)
N3 N -0.0871(11) 0.1995(11) 0.1436(7)
N4 N 0.1154(11) 0.0195(11) 0.1523(7)
C1 C 0.1848(12) 0.6971(12) 0.2248(7)
H1 H 0.21450 0.79550 0.23650
C2 C 0.0433(12) 0.6455(13) 0.2062(7)
H2 H -0.02050 0.70870 0.20560
C3 C -0.0059(12) 0.5026(14) 0.1886(7)
C4 C 0.0923(11) 0.4085(12) 0.1908(6)
C5 C 0.0516(11) 0.2551(12) 0.1685(7)
C6 C -0.1229(16) 0.0579(17) 0.1260(9)
H3 H -0.21820 0.01570 0.11320
C7 C -0.0149(16) -0.0305(14) 0.1265(10)
H4 H -0.04110 -0.12830 0.10710
C8 C 0.1501(12) 0.1634(13) 0.1723(7)
C9 C 0.3044(11) 0.2247(12) 0.1976(7)
C10 C 0.4071(12) 0.1429(12) 0.2049(7)
H5 H 0.38280 0.04390 0.19320
C11 C 0.5411(14) 0.2042(13) 0.2287(8)
H6 H 0.60960 0.14900 0.23770
C12 C 0.5787(12) 0.3541(12) 0.2401(7)
H7 H 0.67430 0.39550 0.25190
C13 C 0.3453(10) 0.3762(11) 0.2139(6)
C14 C 0.2385(11) 0.4681(12) 0.2113(6)
C15 C 0.3504(17) 0.6143(17) 0.5123(9)
H8 H 0.28640 0.52930 0.48560
H9 H 0.30290 0.66800 0.55450
H10 H 0.43290 0.58880 0.53800
C16 C 0.3963(13) 0.7044(15) 0.4473(8)
C17 C 0.3513(13) 0.8380(14) 0.4541(8)
H11 H 0.29810 0.86450 0.49910
C18 C 0.3801(12) 0.9354(13) 0.3981(7)
C19 C 0.3233(14) 1.0738(14) 0.4110(8)
H12 H 0.39930 1.15120 0.40840
H13 H 0.28520 1.08900 0.46500
H14 H 0.24940 1.06920 0.36790
C20 C 0.3670(15) 0.8414(16) 0.0210(9)
H15 H 0.28750 0.85640 0.05380
H16 H 0.33450 0.77230 -0.02910
H17 H 0.40970 0.92980 0.00620
C21 C 0.4782(13) 0.7861(12) 0.0728(8)
C22 C 0.5753(14) 0.7106(15) 0.0298(8)
H18 H 0.57730 0.70640 -0.02780
C23 C 0.6699(11) 0.6410(13) 0.0699(8)
C24 C 0.7636(14) 0.5617(17) 0.0143(8)
H19 H 0.85710 0.61840 0.01810
H20 H 0.72340 0.54280 -0.04270
H21 H 0.77010 0.47300 0.03190
C25 C 0.9198(14) 1.1174(13) 0.3595(9)
H22 H 0.85720 1.16900 0.33420
H23 H 1.00910 1.12640 0.33400
H24 H 0.93610 1.15560 0.41860
C26 C 0.8511(13) 0.9589(12) 0.3463(8)
C27 C 0.9165(13) 0.8638(13) 0.3851(8)
H25 H 0.99970 0.90130 0.41950
C28 C 0.8664(12) 0.7194(14) 0.3758(7)
C29 C 0.9536(13) 0.6271(14) 0.4182(9)
H26 H 0.92410 0.62440 0.47380
H27 H 1.05320 0.66720 0.42130
H28 H 0.93780 0.53190 0.38580
O6 O 0.6851(8) 0.6411(9) 0.1468(5)
#END

data_CSD_CIF_EKOMUN
_audit_creation_date 2011-05-12
_audit_creation_method CSD-ConQuest-V1
_database_code_CSD EKOMUN
_database_code_depnum_ccdc_archive 'CCDC 782174'
_chemical_formula_sum 'C34 H35 Eu1 N4 O7'
_chemical_formula_moiety
;
C33 H31 Eu1 N4 O6,C1 H4 O1
;
_journal_coden_Cambridge 222
_journal_volume 39
_journal_year 2010
_journal_page_first 10637
_journal_name_full 'Dalton Trans. '
loop_
_publ_author_name
"Gong-Jun Chen"
"Xin Qiao"
"Jin-Lei Tian"
"Jing-Yuan Xu"
"Wen Gu"
"Xin Liu"
"Shi-Ping Yan"
_chemical_name_systematic
;
tris(acetylacetonato)-(dipyrido[3,2-a:2',3'-c]phenazine)-europium(iii) 
methanol solvate
;
_cell_volume   1623.073
_exptl_crystal_colour 'colorless'
_exptl_crystal_density_diffrn 1.558
_exptl_special_details
;
cytotoxic activity

;
_exptl_crystal_description 'prism'
_diffrn_ambient_temperature 293
#These two values have been output from a single CSD field.
_refine_ls_R_factor_gt 0.0435
_refine_ls_wR_factor_gt 0.0435
_symmetry_cell_setting triclinic
_symmetry_space_group_name_H-M 'P -1'
_symmetry_Int_Tables_number 2
loop_
_symmetry_equiv_pos_site_id
_symmetry_equiv_pos_as_xyz
1 x,y,z
2 -x,-y,-z
_cell_length_a 9.6910(19)
_cell_length_b 12.743(3)
_cell_length_c 13.705(3)
_cell_angle_alpha 76.73(3)
_cell_angle_beta 80.20(3)
_cell_angle_gamma 88.54(3)
_cell_formula_units_Z 2
loop_
_atom_type_symbol
_atom_type_radius_bond
C 0.68
H 0.23
Eu 1.98
N 0.68
O 0.68
loop_
_atom_site_label
_atom_site_type_symbol
_atom_site_fract_x
_atom_site_fract_y
_atom_site_fract_z
C1 C 1.3585(5) -0.0016(5) -0.0791(4)
H1 H 1.37960 0.06010 -0.13090
H2 H 1.50840 -0.09220 -0.13360
C2 C 1.4344(5) -0.0924(6) -0.0803(4)
Eu1 Eu 0.60020(2) 0.265866(19) 0.332709(16)
O1 O 0.4051(3) 0.1507(3) 0.3481(3)
O2 O 0.4865(3) 0.3308(3) 0.1913(3)
O3 O 0.4344(4) 0.3607(3) 0.4239(3)
O4 O 0.6610(4) 0.4513(3) 0.2762(3)
O5 O 0.8207(3) 0.2852(3) 0.3793(3)
O6 O 0.5845(3) 0.1739(3) 0.5041(2)
N1 N 0.7219(4) 0.0825(3) 0.3163(3)
N2 N 0.7872(4) 0.2648(3) 0.1710(3)
N3 N 1.1041(4) -0.1023(3) 0.1565(3)
N4 N 1.1693(4) 0.0877(4) 0.0030(3)
C3 C 0.6846(5) -0.0094(4) 0.3869(4)
H3 H 0.61100 -0.00740 0.43970
C4 C 0.7510(5) -0.1066(4) 0.3844(4)
H4 H 0.71880 -0.16900 0.43240
C5 C 0.8640(5) -0.1097(4) 0.3107(4)
H5 H 0.91140 -0.17380 0.30920
C6 C 0.9081(4) -0.0153(4) 0.2371(3)
C7 C 1.0290(4) -0.0132(4) 0.1566(3)
C8 C 1.2137(5) -0.0970(5) 0.0798(4)
C9 C 1.2980(5) -0.1888(5) 0.0765(4)
H6 H 1.28130 -0.25090 0.12830
C10 C 1.4044(6) -0.1853(5) -0.0040(5)
H7 H 1.45770 -0.24640 -0.00770
C11 C 1.2459(5) -0.0024(4) 0.0029(4)
C12 C 1.0630(4) 0.0827(4) 0.0800(3)
C13 C 0.9787(4) 0.1780(4) 0.0831(3)
C14 C 1.0041(5) 0.2739(4) 0.0088(4)
H8 H 1.07800 0.27810 -0.04510
C15 C 0.9217(5) 0.3617(4) 0.0143(4)
H9 H 0.93720 0.42510 -0.03590
C16 C 0.8136(5) 0.3537(4) 0.0973(4)
H10 H 0.75740 0.41330 0.10130
C17 C 0.8676(4) 0.1767(4) 0.1638(3)
C18 C 0.8322(4) 0.0792(4) 0.2424(3)
C19 C 0.3185(7) 0.4123(8) 0.0916(6)
H11 H 0.29690 0.47810 0.11340
H12 H 0.23730 0.38700 0.07180
H13 H 0.39380 0.42530 0.03460
C20 C 0.3625(6) 0.3267(5) 0.1794(4)
C21 C 0.2639(6) 0.2490(6) 0.2360(5)
C22 C 0.2901(5) 0.1656(5) 0.3129(4)
C23 C 0.1746(6) 0.0834(6) 0.3641(6)
H14 H 0.18710 0.05310 0.43290
H15 H 0.17830 0.02710 0.32770
H16 H 0.08540 0.11790 0.36410
C24 C 0.6477(9) 0.6376(5) 0.1974(6)
H17 H 0.72580 0.66510 0.21890
H18 H 0.57620 0.69110 0.19140
H19 H 0.67790 0.62010 0.13260
C25 C 0.5889(6) 0.5358(5) 0.2758(4)
C26 C 0.4628(6) 0.5421(5) 0.3377(5)
H20 H 0.41750 0.60800 0.32860
C27 C 0.3976(5) 0.4563(5) 0.4135(5)
C28 C 0.2786(6) 0.4798(5) 0.4912(5)
H21 H 0.25220 0.41520 0.54250
H22 H 0.20000 0.50520 0.45850
H23 H 0.30760 0.53410 0.52200
C29 C 1.0099(6) 0.3105(5) 0.4610(5)
H24 H 1.06970 0.30170 0.40000
H25 H 1.04700 0.27110 0.51910
H26 H 1.00550 0.38560 0.46200
C30 C 0.8653(5) 0.2685(4) 0.4637(4)
C31 C 0.7904(6) 0.2186(5) 0.5584(4)
H27 H 0.83310 0.21320 0.61510
C32 C 0.6549(5) 0.1762(4) 0.5732(4)
C33 C 0.5862(6) 0.1271(5) 0.6823(4)
H28 H 0.50310 0.16630 0.69950
H29 H 0.65030 0.13120 0.72760
H30 H 0.56190 0.05310 0.68840
O7 O -0.0299(6) 0.4929(6) 0.2143(4)
C34 C 0.0183(13) 0.5659(10) 0.2653(7)
H31 H -0.04770 0.56750 0.32570
H32 H 0.02770 0.63680 0.22140
H33 H 0.10750 0.54310 0.28350
#END

data_CSD_CIF_GOGJIX
_audit_creation_date 2014-07-10
_audit_creation_method CSD-ConQuest-V1
_database_code_CSD GOGJIX
_database_code_depnum_ccdc_archive 'CCDC 906668'
_chemical_formula_sum 'C23 H29 N4 O7 Tm1'
_chemical_formula_moiety
;
C23 H27 N4 O6 Tm1,H2 O1
;
_journal_coden_Cambridge 1078
_journal_year 2012
_journal_name_full 'CSD Communication(Private Communication) '
loop_
_publ_author_name
"G.Zucchi"
"P.Thuery"
"M.Ephritikhine"
_chemical_name_systematic
;
tris(Acetylacetonato)-(2,2'-bipyrimidine)-thulium monohydrate
;
_cell_volume   5112.872
_exptl_crystal_colour 'colorless'
_exptl_crystal_density_diffrn 1.669
_exptl_crystal_description 'irregular'
_diffrn_ambient_temperature 100
#These two values have been output from a single CSD field.
_refine_ls_R_factor_gt 0.0243
_refine_ls_wR_factor_gt 0.0243
_symmetry_cell_setting monoclinic
_symmetry_space_group_name_H-M 'P 21/n'
_symmetry_Int_Tables_number 14
loop_
_symmetry_equiv_pos_site_id
_symmetry_equiv_pos_as_xyz
1 x,y,z
2 1/2-x,1/2+y,1/2-z
3 -x,-y,-z
4 -1/2+x,-1/2-y,-1/2+z
_cell_length_a 9.1671(3)
_cell_length_b 36.8833(13)
_cell_length_c 15.6051(6)
_cell_angle_alpha 90
_cell_angle_beta 104.297(2)
_cell_angle_gamma 90
_cell_formula_units_Z 8
loop_
_atom_type_symbol
_atom_type_radius_bond
C 0.68
H 0.23
N 0.68
O 0.68
Tm 1.90
loop_
_atom_site_label
_atom_site_type_symbol
_atom_site_fract_x
_atom_site_fract_y
_atom_site_fract_z
Tm1 Tm 0.482536(14) 0.313057(4) 0.928338(9)
O1 O 0.3894(2) 0.32597(6) 1.04696(14)
O2 O 0.5560(2) 0.37133(6) 0.96893(14)
O3 O 0.2723(2) 0.34264(6) 0.84944(14)
O4 O 0.5476(2) 0.33596(6) 0.80750(14)
O5 O 0.2993(2) 0.27027(6) 0.91298(13)
O6 O 0.5645(2) 0.26484(6) 0.86088(14)
N1 N 0.5884(3) 0.26980(7) 1.05754(16)
N2 N 0.7662(3) 0.30935(7) 0.98061(17)
N3 N 0.9802(3) 0.27589(7) 1.05860(18)
N4 N 0.8063(3) 0.24385(7) 1.15537(17)
C1 C 0.7372(3) 0.26442(8) 1.0872(2)
C2 C 0.8331(3) 0.28447(9) 1.0385(2)
C3 C 0.8539(3) 0.32760(9) 0.9375(2)
H1 H 0.81120 0.34530 0.89650
C4 C 1.0062(3) 0.32045(10) 0.9533(2)
H2 H 1.06720 0.33300 0.92390
C5 C 1.0634(4) 0.29417(9) 1.0141(2)
H3 H 1.16540 0.28880 1.02500
C6 C 0.7155(4) 0.22705(9) 1.1982(2)
H4 H 0.75840 0.21240 1.24630
C7 C 0.5620(3) 0.23062(9) 1.1738(2)
H5 H 0.50080 0.21890 1.20450
C8 C 0.5023(4) 0.25223(9) 1.1024(2)
H6 H 0.39830 0.25480 1.08430
C9 C 0.3108(4) 0.34809(9) 1.1709(2)
H7 H 0.21440 0.33650 1.15190
H8 H 0.29930 0.37100 1.19760
H9 H 0.37730 0.33290 1.21320
C10 C 0.3764(3) 0.35408(9) 1.0917(2)
C11 C 0.4212(3) 0.38854(8) 1.0733(2)
H10 H 0.39270 0.40810 1.10310
C12 C 0.5073(3) 0.39549(9) 1.0121(2)
C13 C 0.5514(4) 0.43423(8) 0.9987(2)
H11 H 0.65820 0.43700 1.02120
H12 H 0.49990 0.45040 1.02960
H13 H 0.52420 0.43990 0.93670
C14 C 0.0976(4) 0.38496(10) 0.7674(2)
H14 H 0.02710 0.36770 0.73480
H15 H 0.09940 0.40600 0.73130
H16 H 0.06790 0.39190 0.81990
C15 C 0.2529(4) 0.36814(9) 0.7928(2)
C16 C 0.3624(4) 0.38049(9) 0.7515(2)
H17 H 0.34040 0.40090 0.71570
C17 C 0.5035(4) 0.36408(9) 0.7603(2)
C18 C 0.6112(4) 0.37932(10) 0.7107(2)
H18 H 0.70100 0.38740 0.75200
H19 H 0.56480 0.39940 0.67500
H20 H 0.63640 0.36090 0.67340
C19 C 0.1435(3) 0.21823(9) 0.8992(2)
H21 H 0.12840 0.22030 0.95770
H22 H 0.14740 0.19310 0.88400
H23 H 0.06180 0.22980 0.85780
C20 C 0.2903(4) 0.23643(9) 0.8962(2)
C21 C 0.4045(3) 0.21596(9) 0.8740(2)
H24 H 0.39500 0.19080 0.87240
C22 C 0.5319(3) 0.23121(9) 0.8541(2)
C23 C 0.6364(4) 0.20708(9) 0.8183(2)
H25 H 0.63460 0.21420 0.75890
H26 H 0.60400 0.18230 0.81850
H27 H 0.73700 0.20930 0.85470
O7 O 1.1649(2) 0.21667(6) 1.17198(15)
H28 H 1.09030 0.23110 1.14670
H29 H 1.15660 0.21030 1.22620
Tm2 Tm 0.124003(14) 0.438681(4) 0.331031(9)
O8 O -0.0124(2) 0.44123(6) 0.43357(13)
O9 O 0.2851(2) 0.46116(6) 0.45511(14)
O10 O -0.0821(2) 0.47248(6) 0.26289(14)
O11 O 0.2227(2) 0.48964(6) 0.28489(14)
O12 O -0.0360(2) 0.39070(6) 0.28108(14)
O13 O 0.1305(2) 0.42945(6) 0.18564(14)
N5 N 0.2170(3) 0.38402(7) 0.42880(16)
N6 N 0.3890(3) 0.41713(7) 0.33676(16)
N7 N 0.6028(3) 0.38304(7) 0.41365(17)
N8 N 0.4260(3) 0.34748(7) 0.50175(18)
C24 C 0.3611(3) 0.37317(8) 0.4457(2)
C25 C 0.4567(3) 0.39243(8) 0.3956(2)
C26 C 0.4750(3) 0.43447(8) 0.2917(2)
H30 H 0.43130 0.45170 0.24970
C27 C 0.6277(3) 0.42721(9) 0.3063(2)
H31 H 0.68800 0.43940 0.27580
C28 C 0.6852(4) 0.40111(9) 0.3678(2)
H32 H 0.78720 0.39560 0.37840
C29 C 0.3367(3) 0.33086(9) 0.5459(2)
H33 H 0.37740 0.31280 0.58640
C30 C 0.1854(3) 0.33973(9) 0.5333(2)
H34 H 0.12430 0.32800 0.56420
C31 C 0.1307(3) 0.36646(8) 0.4736(2)
H35 H 0.02970 0.37280 0.46340
C32 C -0.1207(4) 0.44728(9) 0.5557(2)
H36 H -0.20940 0.45680 0.51590
H37 H -0.10040 0.46060 0.61030
H38 H -0.13630 0.42220 0.56720
C33 C 0.0118(4) 0.45079(9) 0.5144(2)
C34 C 0.1491(3) 0.46307(9) 0.5655(2)
H39 H 0.15570 0.46880 0.62430
C35 C 0.2791(3) 0.46729(8) 0.5334(2)
C36 C 0.4227(4) 0.48034(10) 0.5960(2)
H40 H 0.50160 0.46310 0.59720
H41 H 0.40710 0.48290 0.65430
H42 H 0.45070 0.50340 0.57620
C37 C -0.2598(3) 0.51036(10) 0.1664(2)
H43 H -0.32420 0.48950 0.15430
H44 H -0.26360 0.52310 0.11230
H45 H -0.29310 0.52610 0.20680
C38 C -0.0990(3) 0.49832(9) 0.2073(2)
C39 C 0.0176(3) 0.51643(9) 0.1823(2)
H46 H -0.00810 0.53350 0.13730
C40 C 0.1706(4) 0.51056(9) 0.2204(2)
C41 C 0.2837(4) 0.52988(10) 0.1802(2)
H47 H 0.36810 0.53750 0.22640
H48 H 0.23710 0.55070 0.14790
H49 H 0.31740 0.51370 0.14090
C42 C -0.2202(3) 0.34990(9) 0.1987(2)
H50 H -0.16790 0.32730 0.21340
H51 H -0.28330 0.34860 0.13970
H52 H -0.28110 0.35450 0.23950
C43 C -0.1073(3) 0.38018(9) 0.2042(2)
C44 C -0.0853(3) 0.39405(9) 0.1247(2)
H53 H -0.15230 0.38710 0.07220
C45 C 0.0316(3) 0.41770(9) 0.1198(2)
C46 C 0.0438(4) 0.42981(10) 0.0287(2)
H54 H 0.04680 0.45580 0.02680
H55 H -0.04190 0.42120 -0.01510
H56 H 0.13410 0.42010 0.01710
O14 O 0.8074(3) 0.33691(7) 0.56857(17)
H57 H 0.73460 0.34830 0.52000
H58 H 0.76960 0.31760 0.59710
#END

data_CSD_CIF_GOGJOD
_audit_creation_date 2014-07-10
_audit_creation_method CSD-ConQuest-V1
_database_code_CSD GOGJOD
_database_code_depnum_ccdc_archive 'CCDC 906667'
_chemical_formula_sum 'C23 H29 N4 O7 Tb1'
_chemical_formula_moiety
;
C23 H27 N4 O6 Tb1,H2 O1
;
_journal_coden_Cambridge 1078
_journal_year 2012
_journal_name_full 'CSD Communication(Private Communication) '
loop_
_publ_author_name
"G.Zucchi"
"P.Thuery"
"M.Ephritikhine"
_chemical_name_systematic
;
tris(Acetylacetonato)-(2,2'-bipyrimidine)-terbium monohydrate
;
_cell_volume   5156.887
_exptl_crystal_colour 'colorless'
_exptl_crystal_density_diffrn 1.629
_exptl_crystal_description 'parallelepiped'
_diffrn_ambient_temperature 100
#These two values have been output from a single CSD field.
_refine_ls_R_factor_gt 0.0421
_refine_ls_wR_factor_gt 0.0421
_symmetry_cell_setting monoclinic
_symmetry_space_group_name_H-M 'P 21/n'
_symmetry_Int_Tables_number 14
loop_
_symmetry_equiv_pos_site_id
_symmetry_equiv_pos_as_xyz
1 x,y,z
2 1/2-x,1/2+y,1/2-z
3 -x,-y,-z
4 -1/2+x,-1/2-y,-1/2+z
_cell_length_a 9.1825(5)
_cell_length_b 36.778(3)
_cell_length_c 15.7435(13)
_cell_angle_alpha 90
_cell_angle_beta 104.088(5)
_cell_angle_gamma 90
_cell_formula_units_Z 8
loop_
_atom_type_symbol
_atom_type_radius_bond
C 0.68
H 0.23
N 0.68
O 0.68
Tb 1.94
loop_
_atom_site_label
_atom_site_type_symbol
_atom_site_fract_x
_atom_site_fract_y
_atom_site_fract_z
Tb1 Tb 0.48632(3) 0.313864(7) 0.927455(18)
O1 O 0.3920(3) 0.32670(9) 1.0489(2)
O2 O 0.5571(3) 0.37329(9) 0.9708(2)
O3 O 0.2749(3) 0.34345(9) 0.8452(2)
O4 O 0.5550(4) 0.33811(9) 0.8061(2)
O5 O 0.3029(3) 0.26969(9) 0.9114(2)
O6 O 0.5671(3) 0.26434(9) 0.8582(2)
N1 N 0.5952(4) 0.26957(10) 1.0577(3)
N2 N 0.7745(4) 0.30910(11) 0.9803(3)
N3 N 0.9860(4) 0.27575(12) 1.0587(3)
N4 N 0.8118(4) 0.24452(11) 1.1558(3)
C1 C 0.7439(5) 0.26489(13) 1.0875(4)
C2 C 0.8397(5) 0.28462(13) 1.0396(4)
C3 C 0.8616(5) 0.32696(14) 0.9367(4)
H1 H 0.81920 0.34440 0.89520
C4 C 1.0142(5) 0.31965(15) 0.9531(4)
H2 H 1.07560 0.33180 0.92340
C5 C 1.0695(6) 0.29407(15) 1.0140(4)
H3 H 1.17160 0.28880 1.02560
C6 C 0.7212(6) 0.22788(14) 1.1978(4)
H4 H 0.76430 0.21370 1.24620
C7 C 0.5674(6) 0.23058(13) 1.1735(4)
H5 H 0.50640 0.21860 1.20380
C8 C 0.5090(6) 0.25208(14) 1.1016(4)
H6 H 0.40530 0.25450 1.08280
C9 C 0.3143(6) 0.34824(14) 1.1713(4)
H7 H 0.21960 0.33590 1.15290
H8 H 0.29970 0.37130 1.19690
H9 H 0.38210 0.33370 1.21390
C10 C 0.3795(5) 0.35432(15) 1.0931(4)
C11 C 0.4244(5) 0.38929(13) 1.0764(4)
H10 H 0.39630 0.40860 1.10720
C12 C 0.5097(6) 0.39694(15) 1.0158(4)
C13 C 0.5531(6) 0.43588(13) 1.0045(4)
H11 H 0.65980 0.43850 1.02540
H12 H 0.50340 0.45160 1.03730
H13 H 0.52360 0.44230 0.94360
C14 C 0.1007(5) 0.38499(15) 0.7611(4)
H14 H 0.03240 0.36770 0.72700
H15 H 0.10320 0.40650 0.72690
H16 H 0.06780 0.39120 0.81270
C15 C 0.2555(6) 0.36865(14) 0.7873(4)
C16 C 0.3673(6) 0.38125(14) 0.7477(4)
H17 H 0.34470 0.40160 0.71170
C17 C 0.5098(6) 0.36587(14) 0.7577(4)
C18 C 0.6157(6) 0.38096(15) 0.7078(4)
H18 H 0.70640 0.38870 0.74820
H19 H 0.56970 0.40130 0.67340
H20 H 0.63870 0.36250 0.67000
C19 C 0.1489(6) 0.21751(14) 0.8968(4)
H21 H 0.13350 0.21880 0.95490
H22 H 0.15250 0.19250 0.88010
H23 H 0.06770 0.22950 0.85670
C20 C 0.2948(6) 0.23585(14) 0.8951(4)
C21 C 0.4079(6) 0.21553(14) 0.8723(4)
H24 H 0.39790 0.19040 0.87030
C22 C 0.5362(6) 0.23081(14) 0.8523(4)
C23 C 0.6408(6) 0.20634(14) 0.8177(4)
H25 H 0.63460 0.21210 0.75750
H26 H 0.61240 0.18140 0.82220
H27 H 0.74200 0.20990 0.85140
O7 O 1.1706(4) 0.21664(10) 1.1720(3)
H28 H 1.09520 0.23430 1.14560
H29 H 1.13940 0.20540 1.21700
Tb2 Tb 0.12615(3) 0.439215(6) 0.331139(18)
O8 O -0.0090(3) 0.44151(9) 0.4366(2)
O9 O 0.2875(3) 0.46166(9) 0.4578(2)
O10 O -0.0791(3) 0.47491(9) 0.2629(2)
O11 O 0.2273(4) 0.49103(9) 0.2825(2)
O12 O -0.0357(3) 0.38981(9) 0.2794(2)
O13 O 0.1307(4) 0.42958(9) 0.1843(2)
N5 N 0.2227(4) 0.38335(10) 0.4295(3)
N6 N 0.3948(4) 0.41674(11) 0.3379(3)
N7 N 0.6082(4) 0.38280(11) 0.4151(3)
N8 N 0.4320(4) 0.34733(11) 0.5020(3)
C24 C 0.3669(5) 0.37262(13) 0.4464(4)
C25 C 0.4620(5) 0.39207(14) 0.3961(4)
C26 C 0.4819(5) 0.43441(14) 0.2939(4)
H30 H 0.43940 0.45220 0.25330
C27 C 0.6336(6) 0.42670(14) 0.3077(4)
H31 H 0.69360 0.43850 0.27650
C28 C 0.6907(6) 0.40099(14) 0.3694(4)
H32 H 0.79270 0.39580 0.38040
C29 C 0.3427(6) 0.33054(14) 0.5458(4)
H33 H 0.38390 0.31250 0.58600
C30 C 0.1930(6) 0.33883(13) 0.5338(4)
H34 H 0.13280 0.32690 0.56460
C31 C 0.1369(6) 0.36563(14) 0.4739(4)
H35 H 0.03580 0.37170 0.46380
C32 C -0.1182(6) 0.44751(14) 0.5580(4)
H36 H -0.20750 0.45650 0.51840
H37 H -0.09800 0.46160 0.61100
H38 H -0.13210 0.42250 0.57140
C33 C 0.0128(6) 0.45071(14) 0.5158(4)
C34 C 0.1521(6) 0.46325(14) 0.5664(4)
H39 H 0.15870 0.46910 0.62470
C35 C 0.2819(6) 0.46759(13) 0.5350(4)
C36 C 0.4239(6) 0.48065(15) 0.5973(4)
H40 H 0.50200 0.46300 0.60020
H41 H 0.40630 0.48390 0.65450
H42 H 0.45380 0.50340 0.57700
C37 C -0.2547(6) 0.51286(15) 0.1665(4)
H43 H -0.31860 0.49200 0.15160
H44 H -0.25600 0.52660 0.11460
H45 H -0.29030 0.52770 0.20740
C38 C -0.0954(6) 0.50051(14) 0.2078(4)
C39 C 0.0211(5) 0.51779(14) 0.1819(4)
H46 H -0.00470 0.53480 0.13710
C40 C 0.1749(6) 0.51162(14) 0.2177(4)
C41 C 0.2876(6) 0.52985(16) 0.1762(4)
H47 H 0.36990 0.53880 0.22120
H48 H 0.24030 0.54970 0.14030
H49 H 0.32420 0.51260 0.14060
C42 C -0.2206(6) 0.34983(14) 0.1971(4)
H50 H -0.17020 0.32690 0.21110
H51 H -0.28320 0.34890 0.13860
H52 H -0.28140 0.35460 0.23760
C43 C -0.1055(6) 0.37979(14) 0.2034(4)
C44 C -0.0847(6) 0.39376(14) 0.1241(4)
H53 H -0.15170 0.38680 0.07230
C45 C 0.0332(6) 0.41791(14) 0.1190(4)
C46 C 0.0445(6) 0.42963(15) 0.0287(4)
H54 H 0.04970 0.45570 0.02650
H55 H -0.04230 0.42130 -0.01410
H56 H 0.13330 0.41940 0.01640
O14 O 0.8114(4) 0.3367(1) 0.5693(3)
H57 H 0.75400 0.34030 0.51250
H58 H 0.77290 0.31750 0.58800
#END

data_CSD_CIF_GOGJUJ
_audit_creation_date 2014-07-10
_audit_creation_method CSD-ConQuest-V1
_database_code_CSD GOGJUJ
_database_code_depnum_ccdc_archive 'CCDC 906666'
_chemical_formula_sum 'C23 H29 Eu1 N4 O7'
_chemical_formula_moiety
;
C23 H27 Eu1 N4 O6,H2 O1
;
_journal_coden_Cambridge 1078
_journal_year 2012
_journal_name_full 'CSD Communication(Private Communication) '
loop_
_publ_author_name
"G.Zucchi"
"P.Thuery"
"M.Ephritikhine"
_chemical_name_systematic
;
tris(Acetylacetonato)-(2,2'-bipyrimidine)-europium monohydrate
;
_cell_volume   5168.154
_exptl_crystal_colour 'colorless'
_exptl_crystal_density_diffrn 1.608
_exptl_crystal_description 'irregular'
_diffrn_ambient_temperature 100
#These two values have been output from a single CSD field.
_refine_ls_R_factor_gt 0.0496
_refine_ls_wR_factor_gt 0.0496
_symmetry_cell_setting monoclinic
_symmetry_space_group_name_H-M 'P 21/n'
_symmetry_Int_Tables_number 14
loop_
_symmetry_equiv_pos_site_id
_symmetry_equiv_pos_as_xyz
1 x,y,z
2 1/2-x,1/2+y,1/2-z
3 -x,-y,-z
4 -1/2+x,-1/2-y,-1/2+z
_cell_length_a 9.1931(6)
_cell_length_b 36.802(3)
_cell_length_c 15.7429(14)
_cell_angle_alpha 90
_cell_angle_beta 103.993(5)
_cell_angle_gamma 90
_cell_formula_units_Z 8
loop_
_atom_type_symbol
_atom_type_radius_bond
C 0.68
H 0.23
Eu 1.98
N 0.68
O 0.68
loop_
_atom_site_label
_atom_site_type_symbol
_atom_site_fract_x
_atom_site_fract_y
_atom_site_fract_z
Eu1 Eu 0.48683(3) 0.314007(9) 0.92750(2)
O1 O 0.3929(4) 0.32641(11) 1.0489(3)
O2 O 0.5567(4) 0.37349(11) 0.9704(3)
O3 O 0.2764(4) 0.34337(11) 0.8447(3)
O4 O 0.5568(4) 0.33828(11) 0.8063(3)
O5 O 0.3039(4) 0.26987(11) 0.9120(3)
O6 O 0.5682(4) 0.26421(11) 0.8583(3)
N1 N 0.5961(6) 0.26960(13) 1.0574(3)
N2 N 0.7740(5) 0.30929(14) 0.9806(3)
N3 N 0.9861(6) 0.27551(14) 1.0590(3)
N4 N 0.8113(5) 0.24460(14) 1.1552(4)
C1 C 0.7451(7) 0.26481(16) 1.0867(5)
C2 C 0.8420(7) 0.28439(17) 1.0398(4)
C3 C 0.8613(7) 0.32705(17) 0.9381(4)
H1 H 0.81940 0.34490 0.89780
C4 C 1.0121(7) 0.31959(18) 0.9524(4)
H2 H 1.07250 0.33150 0.92170
C5 C 1.0691(7) 0.29363(19) 1.0145(5)
H3 H 1.17100 0.28850 1.02600
C6 C 0.7205(8) 0.22780(17) 1.1974(4)
H4 H 0.76390 0.21340 1.24540
C7 C 0.5669(7) 0.23058(17) 1.1741(4)
H5 H 0.50600 0.21880 1.20480
C8 C 0.5093(7) 0.25207(17) 1.1020(4)
H6 H 0.40580 0.25460 1.08330
C9 C 0.3128(6) 0.34803(16) 1.1719(4)
H7 H 0.21870 0.33560 1.15260
H8 H 0.29670 0.37100 1.19700
H9 H 0.37960 0.33360 1.21520
C10 C 0.3809(6) 0.35413(19) 1.0950(4)
C11 C 0.4235(6) 0.38952(17) 1.0781(4)
H10 H 0.39470 0.40870 1.10880
C12 C 0.5071(7) 0.39705(17) 1.0172(4)
C13 C 0.5524(7) 0.43621(16) 1.0050(4)
H11 H 0.65910 0.43860 1.02540
H12 H 0.50380 0.45220 1.03770
H13 H 0.52270 0.44250 0.94400
C14 C 0.1006(6) 0.38491(18) 0.7613(4)
H14 H 0.03210 0.36740 0.72850
H15 H 0.10280 0.40600 0.72580
H16 H 0.06830 0.39170 0.81260
C15 C 0.2562(7) 0.36845(18) 0.7881(5)
C16 C 0.3675(7) 0.38143(17) 0.7463(4)
H17 H 0.34470 0.40150 0.70950
C17 C 0.5091(7) 0.36560(19) 0.7575(4)
C18 C 0.6171(7) 0.38070(17) 0.7086(4)
H18 H 0.70410 0.38990 0.74950
H19 H 0.56970 0.40000 0.67090
H20 H 0.64640 0.36180 0.67410
C19 C 0.1491(6) 0.21713(16) 0.8973(4)
H21 H 0.13110 0.21950 0.95460
H22 H 0.15430 0.19190 0.88330
H23 H 0.06890 0.22840 0.85500
C20 C 0.2969(7) 0.23556(18) 0.8955(4)
C21 C 0.4103(7) 0.21518(16) 0.8728(4)
H24 H 0.40090 0.19000 0.87140
C22 C 0.5352(7) 0.23020(18) 0.8524(4)
C23 C 0.6423(7) 0.20675(16) 0.8173(4)
H25 H 0.63490 0.21280 0.75710
H26 H 0.61710 0.18160 0.82170
H27 H 0.74290 0.21100 0.85070
O7 O 1.1712(4) 0.21712(11) 1.1712(3)
H28 H 1.09580 0.23470 1.14480
H29 H 1.14000 0.20580 1.21620
Eu2 Eu 0.12647(3) 0.439199(9) 0.33109(2)
O8 O -0.0083(4) 0.44147(11) 0.4363(3)
O9 O 0.2871(4) 0.46148(11) 0.4566(3)
O10 O -0.0783(4) 0.47466(11) 0.2633(3)
O11 O 0.2271(4) 0.49077(11) 0.2818(3)
O12 O -0.0350(4) 0.39006(11) 0.2793(3)
O13 O 0.1331(4) 0.42959(10) 0.1838(3)
N5 N 0.2229(5) 0.38311(13) 0.4298(3)
N6 N 0.3951(5) 0.41690(13) 0.3377(3)
N7 N 0.6092(6) 0.38267(13) 0.4149(3)
N8 N 0.4324(6) 0.34674(14) 0.5028(4)
C24 C 0.3691(7) 0.37257(16) 0.4463(4)
C25 C 0.4659(7) 0.39244(17) 0.3968(4)
C26 C 0.4843(7) 0.43434(17) 0.2946(4)
H30 H 0.44240 0.45200 0.25380
C27 C 0.6340(7) 0.42712(17) 0.3084(4)
H31 H 0.69380 0.43930 0.27770
C28 C 0.6921(7) 0.40106(18) 0.3696(4)
H32 H 0.79390 0.39580 0.38030
C29 C 0.3421(8) 0.33041(18) 0.5461(4)
H33 H 0.38240 0.31250 0.58660
C30 C 0.1940(7) 0.33869(17) 0.5338(4)
H34 H 0.13390 0.32680 0.56470
C31 C 0.1379(6) 0.36504(16) 0.4747(4)
H35 H 0.03680 0.37090 0.46470
C32 C -0.1170(6) 0.44745(16) 0.5582(4)
H36 H -0.20480 0.45820 0.52090
H37 H -0.09390 0.45960 0.61380
H38 H -0.13520 0.42220 0.56660
C33 C 0.0142(7) 0.45127(16) 0.5157(5)
C34 C 0.1527(7) 0.46334(15) 0.5674(4)
H39 H 0.15970 0.46870 0.62600
C35 C 0.2798(7) 0.46766(16) 0.5351(5)
C36 C 0.4216(7) 0.48060(17) 0.5973(4)
H40 H 0.49950 0.46300 0.59990
H41 H 0.40410 0.48370 0.65460
H42 H 0.45160 0.50340 0.57720
C37 C -0.2529(6) 0.51299(16) 0.1674(4)
H43 H -0.32060 0.49280 0.16090
H44 H -0.25660 0.52340 0.11100
H45 H -0.28170 0.53100 0.20440
C38 C -0.0970(7) 0.50030(18) 0.2078(4)
C39 C 0.0211(7) 0.51796(17) 0.1804(4)
H46 H -0.00440 0.53470 0.13490
C40 C 0.1758(7) 0.51180(17) 0.2180(4)
C41 C 0.2892(7) 0.52980(18) 0.1752(4)
H47 H 0.37440 0.53760 0.21970
H48 H 0.24370 0.55040 0.14180
H49 H 0.32090 0.51270 0.13730
C42 C -0.2220(6) 0.34949(16) 0.1961(4)
H50 H -0.17200 0.32660 0.20950
H51 H -0.28530 0.34880 0.13780
H52 H -0.28190 0.35420 0.23710
C43 C -0.1055(7) 0.37965(17) 0.2021(5)
C44 C -0.0844(7) 0.39385(17) 0.1236(4)
H53 H -0.15160 0.38720 0.07170
C45 C 0.0344(7) 0.41793(17) 0.1189(4)
C46 C 0.0465(7) 0.42970(18) 0.0287(4)
H54 H 0.03580 0.45560 0.02360
H55 H -0.03130 0.41820 -0.01490
H56 H 0.14250 0.42270 0.02010
O14 O 0.8134(5) 0.33675(11) 0.5701(3)
H57 H 0.75600 0.34040 0.51330
H58 H 0.77490 0.31750 0.58880
#END

data_CSD_CIF_GOGMOG
_audit_creation_date 2014-07-10
_audit_creation_method CSD-ConQuest-V1
_database_code_CSD GOGMOG
_database_code_depnum_ccdc_archive 'CCDC 906664'
_chemical_formula_sum 'C25 H30 N5 O6 Tb1'
_chemical_formula_moiety
;
C23 H27 N4 O6 Tb1,C2 H3 N1
;
_journal_coden_Cambridge 1078
_journal_year 2012
_journal_name_full 'CSD Communication(Private Communication) '
loop_
_publ_author_name
"G.Zucchi"
"P.Thuery"
"M.Ephritikhine"
_chemical_name_systematic
;
tris(acetylacetonato)-(2,2'-bipyrimidine)-terbium acetonitrile solvate
;
_cell_volume   1343.512
_exptl_crystal_colour 'colorless'
_exptl_crystal_density_diffrn 1.62
_exptl_special_details
;
contribution from SIS2M, Bat. 125, 91191 Gif-sur-Yvette, France

;
_exptl_crystal_description 'lath'
_diffrn_ambient_temperature 100
#These two values have been output from a single CSD field.
_refine_ls_R_factor_gt 0.0337
_refine_ls_wR_factor_gt 0.0337
_symmetry_cell_setting triclinic
_symmetry_space_group_name_H-M 'P -1'
_symmetry_Int_Tables_number 2
loop_
_symmetry_equiv_pos_site_id
_symmetry_equiv_pos_as_xyz
1 x,y,z
2 -x,-y,-z
_cell_length_a 9.1972(8)
_cell_length_b 9.6338(10)
_cell_length_c 16.0652(14)
_cell_angle_alpha 86.510(5)
_cell_angle_beta 73.866(5)
_cell_angle_gamma 79.294(4)
_cell_formula_units_Z 2
loop_
_atom_type_symbol
_atom_type_radius_bond
C 0.68
H 0.23
N 0.68
O 0.68
Tb 1.94
loop_
_atom_site_label
_atom_site_type_symbol
_atom_site_fract_x
_atom_site_fract_y
_atom_site_fract_z
Tb1 Tb 0.594971(19) 0.58804(2) 0.728015(11)
O1 O 0.4026(3) 0.5404(3) 0.85053(15)
O2 O 0.6015(3) 0.7286(3) 0.83965(15)
O3 O 0.4021(3) 0.7641(3) 0.70344(16)
O4 O 0.7163(3) 0.7710(3) 0.65613(15)
O5 O 0.4567(3) 0.4660(3) 0.66607(15)
O6 O 0.7674(3) 0.4799(3) 0.60446(15)
N1 N 0.8602(3) 0.5170(3) 0.76056(18)
N2 N 0.6788(3) 0.3227(3) 0.77202(18)
N3 N 0.8785(3) 0.1419(3) 0.79697(19)
N4 N 1.0543(3) 0.3405(3) 0.79409(19)
C1 C 0.9173(4) 0.3839(4) 0.7788(2)
C2 C 0.8199(4) 0.2745(4) 0.7826(2)
C3 C 0.5907(4) 0.2249(4) 0.7761(2)
H1 H 0.49290 0.25300 0.76840
C4 C 0.6402(4) 0.0836(4) 0.7913(2)
H2 H 0.57790 0.01650 0.79450
C5 C 0.7874(4) 0.0470(4) 0.8014(2)
H3 H 0.82420 -0.04720 0.81180
C6 C 1.1384(4) 0.4415(5) 0.7909(2)
H4 H 1.23370 0.41620 0.80230
C7 C 1.0911(4) 0.5798(4) 0.7718(2)
H5 H 1.15270 0.64730 0.76870
C8 C 0.9477(4) 0.6145(4) 0.7572(2)
H6 H 0.91120 0.70790 0.74480
C9 C 0.2128(4) 0.5258(5) 0.9839(2)
H7 H 0.12150 0.58920 0.97930
H8 H 0.21620 0.51960 1.04320
H9 H 0.21170 0.43380 0.96440
C10 C 0.3523(4) 0.5801(4) 0.9287(2)
C11 C 0.4180(4) 0.6718(4) 0.9658(2)
H10 H 0.37630 0.69120 1.02450
C12 C 0.5410(4) 0.7356(4) 0.9211(2)
C13 C 0.6110(4) 0.8215(4) 0.9707(2)
H11 H 0.71950 0.78710 0.95840
H12 H 0.56420 0.81300 1.03170
H13 H 0.59350 0.91900 0.95330
C14 C 0.2393(4) 0.9504(4) 0.6536(3)
H14 H 0.18510 0.88120 0.64150
H15 H 0.24960 1.01990 0.60790
H16 H 0.18290 0.99550 0.70750
C15 C 0.3970(4) 0.8788(4) 0.6594(2)
C16 C 0.5235(4) 0.9425(4) 0.6194(2)
H17 H 0.50640 1.02670 0.58920
C17 C 0.6752(4) 0.8878(4) 0.6216(2)
C18 C 0.7999(4) 0.9721(4) 0.5798(2)
H18 H 0.87510 0.95870 0.61200
H19 H 0.75560 1.07050 0.57920
H20 H 0.84830 0.94080 0.52140
C19 C 0.3500(4) 0.3359(4) 0.5850(2)
H21 H 0.32190 0.26460 0.62790
H22 H 0.37820 0.29580 0.52830
H23 H 0.26430 0.41190 0.59010
C20 C 0.4839(4) 0.3911(4) 0.5988(2)
C21 C 0.6298(4) 0.3537(4) 0.5409(2)
H24 H 0.63900 0.29560 0.49490
C22 C 0.7620(4) 0.3975(4) 0.5477(2)
C23 C 0.9145(4) 0.3429(4) 0.4826(2)
H25 H 0.95840 0.42130 0.45310
H26 H 0.89770 0.28420 0.44120
H27 H 0.98370 0.28870 0.51240
N5 N 0.0061(4) 0.8434(4) 0.9190(2)
C24 C 0.0954(5) 0.9155(5) 0.9032(3)
C25 C 0.2078(5) 1.0100(5) 0.8828(3)
H28 H 0.30270 0.96250 0.84570
H29 H 0.22510 1.03670 0.93530
H30 H 0.16950 1.09300 0.85370
#END

data_CSD_CIF_GUFMIF
_audit_creation_date 2015-04-17
_audit_creation_method CSD-ConQuest-V1
_database_code_CSD GUFMIF
_database_code_depnum_ccdc_archive 'CCDC 965722'
_chemical_formula_sum 'C31 H41 Dy1 N2 O8'
_chemical_formula_moiety
;
C31 H37 Dy1 N2 O6,2(H2 O1)
;
_journal_coden_Cambridge 222
_journal_volume 44
_journal_year 2015
_journal_page_first 9020
_journal_name_full 'Dalton Trans. '
loop_
_publ_author_name
"Yu-Zhang Tong"
"Chen Gao"
"Qing-Lun Wang"
"Bing-Wu Wang"
"Song Gao"
"Peng Cheng"
"Dai-Zheng Liao"
_chemical_name_systematic
;
tris(Acetylacetonato-O,O')-(3,4,7,8-tetramethyl-1,10-phenanthroline)-dysprosiu
m dihydrate
;
_cell_volume   1569.734
_exptl_crystal_colour 'yellow'
_exptl_crystal_density_diffrn 1.549
_exptl_crystal_description 'block'
_diffrn_ambient_temperature 293
#These two values have been output from a single CSD field.
_refine_ls_R_factor_gt 0.0239
_refine_ls_wR_factor_gt 0.0239
_symmetry_cell_setting triclinic
_symmetry_space_group_name_H-M 'P -1'
_symmetry_Int_Tables_number 2
loop_
_symmetry_equiv_pos_site_id
_symmetry_equiv_pos_as_xyz
1 x,y,z
2 -x,-y,-z
_cell_length_a 10.6421(9)
_cell_length_b 11.4005(8)
_cell_length_c 14.6562(8)
_cell_angle_alpha 83.765(5)
_cell_angle_beta 72.402(6)
_cell_angle_gamma 67.841(7)
_cell_formula_units_Z 2
loop_
_atom_type_symbol
_atom_type_radius_bond
C 0.68
H 0.23
Dy 1.92
N 0.68
O 0.68
loop_
_atom_site_label
_atom_site_type_symbol
_atom_site_fract_x
_atom_site_fract_y
_atom_site_fract_z
C1 C 0.0227(3) 0.3453(3) 0.6087(2)
H1 H -0.05030 0.38110 0.66330
C2 C -0.0136(3) 0.3461(3) 0.5238(2)
C3 C -0.1681(3) 0.4076(3) 0.5263(2)
H2 H -0.17720 0.46430 0.47330
H3 H -0.22100 0.45410 0.58510
H4 H -0.20410 0.34340 0.52220
C4 C 0.0926(3) 0.2898(3) 0.4426(2)
C5 C 0.0548(4) 0.2846(3) 0.3520(2)
H5 H -0.02280 0.25550 0.36680
H6 H 0.13510 0.22740 0.30710
H7 H 0.02820 0.36760 0.32460
C6 C 0.2343(3) 0.2393(3) 0.4479(2)
C7 C 0.2597(3) 0.2452(2) 0.5364(2)
C8 C 0.4017(3) 0.1940(2) 0.54485(19)
C9 C 0.3555(3) 0.1810(3) 0.3686(2)
H8 H 0.34160 0.17360 0.31020
C10 C 0.4888(3) 0.1368(3) 0.3762(2)
H9 H 0.56390 0.10150 0.32260
C11 C 0.5180(3) 0.1427(2) 0.4646(2)
C12 C 0.6577(3) 0.0998(3) 0.4750(2)
C13 C 0.6714(3) 0.1081(3) 0.5644(2)
C14 C 0.5490(3) 0.1563(3) 0.6403(2)
H10 H 0.56060 0.15940 0.70030
C15 C 0.8126(3) 0.0647(3) 0.5850(2)
H11 H 0.86700 -0.02080 0.56260
H12 H 0.79810 0.06830 0.65270
H13 H 0.86270 0.11890 0.55270
C16 C 0.7855(3) 0.0463(3) 0.3906(2)
H14 H 0.86990 0.03040 0.40890
H15 H 0.78120 0.10590 0.33910
H16 H 0.78690 -0.03150 0.37030
C17 C 0.3748(4) 0.6021(4) 0.6328(3)
H17 H 0.39180 0.57350 0.56940
H18 H 0.45290 0.62320 0.63540
H19 H 0.28950 0.67570 0.64840
C18 C 0.3595(3) 0.4985(3) 0.7036(2)
C19 C 0.4526(3) 0.4555(3) 0.7606(2)
H20 H 0.51960 0.49250 0.75230
C20 C 0.4507(3) 0.3610(3) 0.8286(2)
C21 C 0.5504(3) 0.3273(3) 0.8900(2)
H21 H 0.49780 0.35690 0.95420
H22 H 0.61930 0.36640 0.86460
H23 H 0.59750 0.23700 0.89020
C22 C 0.3722(3) -0.1198(3) 0.9055(2)
H24 H 0.45800 -0.15820 0.85590
H25 H 0.32850 -0.18100 0.93050
H26 H 0.39350 -0.09050 0.95600
C23 C 0.2718(3) -0.0087(3) 0.86492(19)
C24 C 0.1359(3) -0.0071(3) 0.8774(2)
H27 H 0.10940 -0.06930 0.91560
C25 C 0.0370(3) 0.0823(3) 0.8359(2)
C26 C -0.0976(3) 0.0610(3) 0.8436(3)
H28 H -0.16890 0.13980 0.83450
H29 H -0.12980 0.02810 0.90570
H30 H -0.07960 0.00150 0.79530
C27 C -0.0622(3) 0.3199(3) 1.1024(2)
H31 H -0.00320 0.23450 1.11170
H32 H -0.15980 0.32960 1.12920
H33 H -0.04170 0.37750 1.13360
C28 C -0.0335(3) 0.3483(3) 0.9963(2)
C29 C -0.1454(3) 0.4283(3) 0.9616(2)
H34 H -0.23620 0.45090 1.00340
C30 C -0.1313(3) 0.4763(3) 0.8696(2)
C31 C -0.2604(3) 0.5724(3) 0.8451(2)
H35 H -0.26560 0.65640 0.85440
H36 H -0.34400 0.56020 0.88590
H37 H -0.25350 0.56160 0.77950
Dy1 Dy 0.202182(13) 0.286115(11) 0.779055(9)
N1 N 0.1536(2) 0.2972(2) 0.61632(16)
N2 N 0.4175(2) 0.1979(2) 0.63377(16)
O1 O 0.2625(2) 0.45899(18) 0.70701(14)
O2 O 0.3695(2) 0.29920(18) 0.84421(14)
O3 O 0.3196(2) 0.07506(17) 0.82109(13)
O4 O 0.0534(2) 0.17706(18) 0.78882(14)
O5 O -0.0153(2) 0.44887(18) 0.80326(14)
O6 O 0.0936(2) 0.29837(19) 0.94455(14)
O7 O 0.3156(2) 0.1621(2) 0.02575(15)
H38 H 0.24410 0.21280 0.00530
H39 H 0.38100 0.17890 -0.02610
O8 O 0.6225(3) 1.0061(3) 0.82685(18)
H40 H 0.63950 0.94970 0.87680
H41 H 0.52540 1.02590 0.83780
#END

data_CSD_CIF_HUCJEW
_audit_creation_date 2015-02-25
_audit_creation_method CSD-ConQuest-V1
_database_code_CSD HUCJEW
_database_code_depnum_ccdc_archive 'CCDC 966774'
_chemical_formula_sum 'C39 H37 Er1 N2 O6'
_chemical_formula_moiety
;
C39 H37 Er1 N2 O6
;
_journal_coden_Cambridge 862
_journal_volume 162
_journal_year 2015
_journal_page_first 41
_journal_name_full 'J.Lumin. '
loop_
_publ_author_name
"P.Martin-Ramos"
"P.S.P.Silva"
"P.Chamorro-Posada"
"M.R.Silva"
"B.F.Milne"
"F.Nogueira"
"J.Martin-Gil"
_chemical_name_systematic
;
tris(acetylacetonato)-(4,7-diphenyl-1,10-phenanthroline)-erbium(iii)
;
_cell_volume   1806.054
_exptl_crystal_colour 'pink'
_exptl_crystal_density_diffrn 1.466
_exptl_crystal_description 'hexagonal prism'
_diffrn_ambient_temperature 293
#These two values have been output from a single CSD field.
_refine_ls_R_factor_gt 0.0276
_refine_ls_wR_factor_gt 0.0276
_symmetry_cell_setting triclinic
_symmetry_space_group_name_H-M 'P -1'
_symmetry_Int_Tables_number 2
loop_
_symmetry_equiv_pos_site_id
_symmetry_equiv_pos_as_xyz
1 x,y,z
2 -x,-y,-z
_cell_length_a 11.8685(2)
_cell_length_b 12.1053(3)
_cell_length_c 14.2355(3)
_cell_angle_alpha 96.663(1)
_cell_angle_beta 105.008(1)
_cell_angle_gamma 110.177(1)
_cell_formula_units_Z 2
loop_
_atom_type_symbol
_atom_type_radius_bond
C 0.68
H 0.23
Er 1.89
N 0.68
O 0.68
loop_
_atom_site_label
_atom_site_type_symbol
_atom_site_fract_x
_atom_site_fract_y
_atom_site_fract_z
Er1 Er 0.764203(9) 0.553415(9) 0.221213(8)
C1 C 1.1274(3) 0.7773(4) 0.4858(3)
H1 H 1.13590 0.71000 0.51220
H2 H 1.15080 0.84470 0.53980
H3 H 1.18190 0.79920 0.44570
C2 C 0.9917(3) 0.7425(3) 0.4223(2)
C3 C 0.9196(3) 0.8006(3) 0.4497(2)
H4 H 0.95330 0.85350 0.51210
C4 C 0.7998(3) 0.7850(3) 0.3901(2)
C5 C 0.7327(5) 0.8562(4) 0.4267(3)
H5 H 0.72220 0.91040 0.38410
H6 H 0.78160 0.90190 0.49360
H7 H 0.65100 0.80220 0.42570
C6 C 0.6558(4) 0.4301(4) 0.4913(3)
H8 H 0.70670 0.38280 0.49850
H9 H 0.57630 0.38610 0.50020
H10 H 0.69940 0.50490 0.54060
C7 C 0.6322(3) 0.4560(3) 0.3883(2)
C8 C 0.5170(3) 0.4614(3) 0.3406(3)
H11 H 0.45840 0.44910 0.37490
C9 C 0.4820(3) 0.4835(2) 0.2461(2)
C10 C 0.3566(3) 0.4954(3) 0.2094(3)
H12 H 0.36410 0.55540 0.17020
H13 H 0.33270 0.51920 0.26550
H14 H 0.29310 0.41920 0.16910
C11 C 1.0861(3) 0.6423(4) 0.0804(4)
H15 H 1.15170 0.71790 0.11980
H16 H 1.08250 0.63570 0.01180
H17 H 1.10400 0.57710 0.10400
C12 C 0.9594(3) 0.6365(3) 0.0896(2)
C13 C 0.8973(3) 0.7004(3) 0.0368(3)
H18 H 0.93390 0.74200 -0.00580
C14 C 0.7855(3) 0.7060(2) 0.0433(2)
C15 C 0.7284(4) 0.7792(3) -0.0171(3)
H19 H 0.64910 0.72630 -0.06600
H20 H 0.78530 0.82150 -0.05020
H21 H 0.71450 0.83630 0.02640
C16 C 0.9427(3) 0.3992(3) 0.3186(2)
H22 H 0.96930 0.46410 0.37230
C17 C 1.0047(3) 0.3206(3) 0.3264(2)
H23 H 1.07110 0.33390 0.38390
C18 C 0.9684(3) 0.2229(2) 0.2492(2)
C19 C 0.8679(2) 0.2076(2) 0.16283(19)
C20 C 0.8112(2) 0.2926(2) 0.16174(18)
C21 C 0.7100(2) 0.2813(2) 0.07479(18)
C22 C 0.5219(3) 0.2665(3) -0.0899(2)
H24 H 0.45730 0.26470 -0.14430
C23 C 0.5697(2) 0.1791(2) -0.09379(19)
C24 C 0.5702(3) 0.3589(3) -0.0037(2)
H25 H 0.53630 0.41760 -0.00320
C25 C 0.6670(2) 0.1848(2) -0.00813(18)
C26 C 0.7289(3) 0.1022(2) -0.0047(2)
H26 H 0.70250 0.03910 -0.05980
C27 C 0.8242(3) 0.1133(2) 0.0759(2)
H27 H 0.86270 0.05820 0.07500
C28 C 1.0330(3) 0.1370(2) 0.2570(2)
C29 C 1.1598(3) 0.1778(3) 0.2710(3)
H28 H 1.20560 0.25940 0.27680
C30 C 1.2213(4) 0.0976(5) 0.2769(4)
H29 H 1.30770 0.12570 0.28600
C31 C 1.1540(5) -0.0222(4) 0.2692(3)
H30 H 1.19430 -0.07590 0.27150
C32 C 1.0288(4) -0.0627(3) 0.2583(3)
H31 H 0.98430 -0.14360 0.25570
C33 C 0.9666(3) 0.0156(3) 0.2509(2)
H32 H 0.88020 -0.01330 0.24190
C34 C 0.5260(2) 0.0841(3) -0.1864(2)
C35 C 0.5554(4) 0.1160(3) -0.2685(2)
H33 H 0.60000 0.19680 -0.26630
C36 C 0.5196(4) 0.0295(4) -0.3555(3)
H34 H 0.54120 0.05210 -0.41070
C37 C 0.4528(4) -0.0886(4) -0.3593(3)
H35 H 0.42760 -0.14660 -0.41770
C38 C 0.4230(4) -0.1218(4) -0.2794(4)
H36 H 0.37790 -0.20270 -0.28240
C39 C 0.4593(4) -0.0352(3) -0.1919(3)
H37 H 0.43800 -0.05870 -0.13690
O1 O 0.74326(19) 0.71609(18) 0.30498(15)
O2 O 0.95411(18) 0.66088(17) 0.34421(16)
O3 O 0.7209(2) 0.4718(2) 0.35268(16)
O4 O 0.54835(17) 0.49616(18) 0.18851(14)
N1 N 0.66130(19) 0.36773(18) 0.07685(15)
N2 N 0.8484(2) 0.38736(18) 0.23967(16)
O5 O 0.72533(17) 0.65319(17) 0.09732(15)
O6 O 0.91980(19) 0.5752(2) 0.14664(17)
#END

data_CSD_CIF_ISEBIS
_audit_creation_date 2011-08-04
_audit_creation_method CSD-ConQuest-V1
_database_code_CSD ISEBIS
_database_code_depnum_ccdc_archive 'CCDC 801063'
_chemical_formula_sum 'C27 H29 Dy1 N2 O6'
_chemical_formula_moiety
;
C27 H29 Dy1 N2 O6
;
_journal_coden_Cambridge 222
_journal_volume 40
_journal_year 2011
_journal_page_first 5579
_journal_name_full 'Dalton Trans. '
loop_
_publ_author_name
"Gong-Jun Chen"
"Chun-Yan Gao"
"Jin-Lei Tian"
"Jinkui Tang"
"Wen Gu"
"Xin Liu"
"Shi-Ping Yan"
"Dai-Zheng Liao"
"Peng Cheng"
_chemical_name_systematic
;
tris(acetylacetonato)-(1,10-phenanthroline)-dysprosium(iii)
;
_cell_volume   2902.423
_exptl_crystal_colour 'colorless'
_exptl_crystal_density_diffrn 1.465
_exptl_crystal_description 'prism'
_diffrn_ambient_temperature 293
#These two values have been output from a single CSD field.
_refine_ls_R_factor_gt 0.0396
_refine_ls_wR_factor_gt 0.0396
_symmetry_cell_setting monoclinic
_symmetry_space_group_name_H-M 'P 21/c'
_symmetry_Int_Tables_number 14
loop_
_symmetry_equiv_pos_site_id
_symmetry_equiv_pos_as_xyz
1 x,y,z
2 -x,1/2+y,1/2-z
3 -x,-y,-z
4 x,-1/2-y,-1/2+z
_cell_length_a 9.5010(19)
_cell_length_b 21.015(4)
_cell_length_c 16.246(5)
_cell_angle_alpha 90
_cell_angle_beta 116.52(2)
_cell_angle_gamma 90
_cell_formula_units_Z 4
loop_
_atom_type_symbol
_atom_type_radius_bond
C 0.68
H 0.23
Dy 1.92
N 0.68
O 0.68
loop_
_atom_site_label
_atom_site_type_symbol
_atom_site_fract_x
_atom_site_fract_y
_atom_site_fract_z
Dy1 Dy 0.76142(2) 0.846645(8) 0.340635(12)
O1 O 0.8264(4) 0.95364(13) 0.3477(2)
O2 O 0.7142(3) 0.89093(13) 0.45597(19)
O3 O 0.7568(4) 0.86539(14) 0.1988(2)
O4 O 0.5135(4) 0.88845(14) 0.2459(2)
O5 O 0.8349(4) 0.75033(13) 0.2999(2)
O6 O 0.5931(3) 0.76897(13) 0.3477(2)
N1 N 1.0572(4) 0.85097(14) 0.3895(2)
N2 N 0.9421(4) 0.79234(14) 0.4952(2)
C1 C 1.1149(6) 0.8809(2) 0.3400(3)
H1 H 1.04740 0.90610 0.29140
C2 C 1.2724(6) 0.8767(3) 0.3568(4)
H2 H 1.30790 0.89840 0.31970
C3 C 1.3711(6) 0.8408(2) 0.4269(4)
H3 H 1.47570 0.83700 0.43810
C4 C 1.3181(5) 0.8094(2) 0.4832(3)
C5 C 1.4171(6) 0.7722(3) 0.5618(4)
H4 H 1.52260 0.76710 0.57560
C6 C 1.3623(7) 0.7446(3) 0.6157(4)
H5 H 1.43050 0.72150 0.66690
C7 C 1.1994(7) 0.7499(2) 0.5958(3)
C8 C 1.1363(8) 0.7244(3) 0.6518(4)
H6 H 1.20050 0.70120 0.70380
C9 C 0.9848(8) 0.7332(2) 0.6312(4)
H7 H 0.94370 0.71720 0.66930
C10 C 0.8891(6) 0.7670(2) 0.5513(3)
H8 H 0.78330 0.77200 0.53670
C11 C 1.0961(5) 0.78480(18) 0.5182(3)
C12 C 1.1579(5) 0.81549(19) 0.4616(3)
C13 C 0.8418(8) 1.0652(2) 0.3554(4)
H9 H 0.94400 1.07920 0.39950
H10 H 0.76440 1.09600 0.35130
H11 H 0.84070 1.06050 0.29630
C14 C 0.8046(6) 1.0021(2) 0.3854(3)
C15 C 0.7535(6) 1.0008(2) 0.4530(4)
H12 H 0.74300 1.03960 0.47730
C16 C 0.7172(5) 0.9467(2) 0.4869(3)
C17 C 0.6810(6) 0.9499(3) 0.5690(3)
H13 H 0.58890 0.92510 0.55660
H14 H 0.66260 0.99340 0.57980
H15 H 0.76860 0.93340 0.62250
C18 C 0.7600(9) 0.9233(3) 0.0748(4)
H16 H 0.82580 0.96000 0.09920
H17 H 0.67980 0.93250 0.01410
H18 H 0.82260 0.88820 0.07230
C19 C 0.6836(7) 0.9061(3) 0.1366(3)
C20 C 0.5444(7) 0.9349(3) 0.1233(4)
H19 H 0.49950 0.96360 0.07500
C21 C 0.4669(7) 0.9241(3) 0.1765(4)
C22 C 0.3082(8) 0.9581(4) 0.1517(5)
H20 H 0.22450 0.92750 0.12940
H21 H 0.28980 0.98940 0.10490
H22 H 0.31190 0.97860 0.20550
C23 C 0.9305(10) 0.6463(2) 0.3061(6)
H23 H 0.90580 0.64060 0.24240
H24 H 0.92330 0.60610 0.33210
H25 H 1.03540 0.66270 0.33870
C24 C 0.8166(7) 0.6923(2) 0.3138(3)
C25 C 0.6972(8) 0.6709(2) 0.3350(4)
H26 H 0.68960 0.62720 0.34130
C26 C 0.5909(6) 0.7085(2) 0.3472(3)
C27 C 0.4592(7) 0.6778(3) 0.3606(5)
H27 H 0.47960 0.68180 0.42380
H28 H 0.45250 0.63360 0.34450
H29 H 0.36170 0.69850 0.32210
#END

data_CSD_CIF_JIPFUJ
_audit_creation_date 1991-11-25
_audit_creation_method CSD-ConQuest-V1
_database_code_CSD JIPFUJ
_chemical_formula_sum 'C25 H29 N2 O6 Yb1'
_chemical_formula_moiety
;
C25 H29 N2 O6 Yb1
;
_journal_coden_Cambridge 233
_journal_volume 35
_journal_year 1990
_journal_page_first 1471
_journal_name_full 'Zh.Neorg.Khim.(Russ.)(Russ.J.Inorg.Chem.) '
loop_
_publ_author_name
"N.G.Dzyubenko"
"E.F.Kortnyi"
"L.I.Martynenko"
"L.A.Aslanov"
_chemical_name_systematic
;
tris(Acetylacetonato)-2,2'-bipyridyl-ytterbium
;
_cell_volume   5356.263
_exptl_crystal_colour 'colorless'
_exptl_crystal_density_diffrn 1.554
_exptl_special_details
;
z(O3) is 0.7437 not 0.7473. y(O9) is 0.2966 not 0.2662

;
_diffrn_ambient_temperature ?
_diffrn_special_details
;
The study was carried out at room temperature,in the range 283-303K

;
#These two values have been output from a single CSD field.
_refine_ls_R_factor_gt 0.108
_refine_ls_wR_factor_gt 0.108
_symmetry_cell_setting monoclinic
_symmetry_space_group_name_H-M 'P 21/c'
_symmetry_Int_Tables_number 14
loop_
_symmetry_equiv_pos_site_id
_symmetry_equiv_pos_as_xyz
1 x,y,z
2 -x,1/2+y,1/2-z
3 -x,-y,-z
4 x,-1/2-y,-1/2+z
_cell_length_a 18.8024(68)
_cell_length_b 13.4068(54)
_cell_length_c 22.5605(94)
_cell_angle_alpha 90
_cell_angle_beta 109.638(40)
_cell_angle_gamma 90
_cell_formula_units_Z 8
loop_
_atom_type_symbol
_atom_type_radius_bond
C 0.68
N 0.68
O 0.68
Yb 1.94
loop_
_atom_site_label
_atom_site_type_symbol
_atom_site_fract_x
_atom_site_fract_y
_atom_site_fract_z
Yb1 Yb 0.11929(6) 0.17312(7) 0.65169(5)
Yb2 Yb 0.60751(6) 0.18410(7) 0.65799(5)
O1 O 0.1647(8) 0.0434(1) 0.6138(7)
O2 O 0.0544(1) 0.1655(2) 0.5475(7)
O3 O 0.1021(9) 0.2239(11) 0.7437(8)
O4 O 0.2334(9) 0.1576(11) 0.7273(7)
O5 O 0.1943(10) 0.2591(13) 0.6086(8)
O6 O 0.0687(9) 0.3293(10) 0.6346(7)
O7 O 0.6605(8) 0.0791(11) 0.6087(6)
O8 O 0.5328(10) 0.1751(11) 0.5555(7)
O9 O 0.6647(9) 0.2966(11) 0.6165(8)
O10 O 0.5392(9) 0.324(1) 0.6452(7)
O11 O 0.5939(10) 0.2198(10) 0.7542(7)
O12 O 0.7252(9) 0.1911(11) 0.7311(7)
N1 N -0.0149(11) 0.1391(15) 0.6385(9)
N2 N 0.0946(9) 0.0179(3) 0.7069(8)
N3 N 0.620(1) 0.0164(12) 0.7108(8)
N4 N 0.4875(9) 0.0995(13) 0.6574(8)
C1 C 0.1561(12) 0.0061(17) 0.5613(10)
C2 C 0.1081(13) 0.0404(18) 0.5046(10)
C3 C 0.0566(12) 0.1180(17) 0.5017(10)
C4 C 0.2035(17) -0.0897(20) 0.5599(12)
C5 C 0.0044(14) 0.1491(22) 0.4383(11)
C6 C 0.1501(15) 0.2088(21) 0.8041(11)
C7 C 0.2187(18) 0.1881(23) 0.8239(13)
C8 C 0.2605(14) 0.1612(17) 0.7863(11)
C9 C 0.102(2) 0.2388(28) 0.8475(14)
C10 C 0.3364(19) 0.1304(26) 0.8156(13)
C11 C 0.1805(15) 0.3364(20) 0.5725(10)
C12 C 0.1304(14) 0.4077(24) 0.5728(12)
C13 C 0.0754(16) 0.3976(19) 0.5997(12)
C14 C 0.2469(19) 0.3531(26) 0.5429(14)
C15 C 0.0184(14) 0.4842(20) 0.5922(12)
C16 C -0.0752(13) 0.1957(20) 0.5976(12)
C17 C -0.1411(18) 0.1951(22) 0.6043(14)
C18 C -0.1597(15) 0.1287(24) 0.6444(14)
C19 C -0.1034(13) 0.0704(12) 0.6837(13)
C20 C -0.0343(14) 0.0734(18) 0.6763(11)
C21 C 0.0252(15) 0.0082(17) 0.7118(11)
C22 C 0.0099(20) -0.0709(22) 0.7494(14)
C23 C 0.0715(19) -0.1305(28) 0.7791(15)
C24 C 0.1377(15) -0.1202(20) 0.7713(12)
C25 C 0.1516(15) -0.0420(18) 0.7377(11)
C26 C 0.6511(12) 0.0418(17) 0.5584(11)
C27 C 0.5925(15) 0.071(2) 0.5028(13)
C28 C 0.5344(14) 0.1375(19) 0.5042(10)
C29 C 0.7009(17) -0.0376(21) 0.5476(21)
C30 C 0.4712(20) 0.1699(26) 0.4455(13)
C31 C 0.6437(12) 0.3635(19) 0.5825(10)
C32 C 0.5881(15) 0.4200(17) 0.5808(12)
C33 C 0.5312(14) 0.3975(19) 0.6076(11)
C34 C 0.7052(14) 0.4129(21) 0.5549(14)
C35 C 0.4584(20) 0.4631(22) 0.5987(15)
C36 C 0.6326(11) 0.2058(16) 0.8099(10)
C37 C 0.7077(19) 0.1983(20) 0.8281(12)
C38 C 0.7518(10) 0.1871(16) 0.7891(11)
C39 C 0.5951(18) 0.2295(21) 0.8595(13)
C40 C 0.8321(21) 0.1669(29) 0.8181(16)
C41 C 0.6888(13) -0.0249(17) 0.7304(12)
C42 C 0.7059(15) -0.1138(19) 0.7662(11)
C43 C 0.6453(16) -0.1545(20) 0.7799(12)
C44 C 0.5744(44) -0.1160(19) 0.7588(10)
C45 C 0.5681(12) -0.0275(16) 0.7251(10)
C46 C 0.4908(12) 0.0171(15) 0.6955(10)
C47 C 0.4249(14) -0.0140(19) 0.7054(11)
C48 C 0.3555(12) 0.0301(18) 0.6748(11)
C49 C 0.3491(14) 0.1108(20) 0.6341(12)
C50 C 0.4218(12) 0.1408(17) 0.6287(10)
#END

data_CSD_CIF_NAVYAK
_audit_creation_date 1998-03-31
_audit_creation_method CSD-ConQuest-V1
_database_code_CSD NAVYAK
_chemical_formula_sum 'C27 H29 La1 N2 O6'
_chemical_formula_moiety
;
C27 H29 La1 N2 O6
;
_journal_coden_Cambridge 367
_journal_volume 23
_journal_year 1997
_journal_page_first 450
_journal_name_full 'Koord.Khim.(Russ.)(Coord.Chem.) '
loop_
_publ_author_name
"N.P.Kuz'mina"
"N.V.Chugarov"
"A.P.Pisarevsky"
"L.I.Martynenko"
_chemical_name_systematic
;
tris(Acetylacetonato)-(1,10-phenanthroline)-lanthanum
;
_cell_volume   5547.944
_exptl_crystal_density_diffrn 1.476
_diffrn_ambient_temperature ?
_diffrn_special_details
;
The study was carried out at room temperature,in the range 283-303K

;
#These two values have been output from a single CSD field.
_refine_ls_R_factor_gt 0.069
_refine_ls_wR_factor_gt 0.069
_symmetry_cell_setting monoclinic
_symmetry_space_group_name_H-M 'P 21/n'
_symmetry_Int_Tables_number 14
loop_
_symmetry_equiv_pos_site_id
_symmetry_equiv_pos_as_xyz
1 x,y,z
2 1/2-x,1/2+y,1/2-z
3 -x,-y,-z
4 -1/2+x,-1/2-y,-1/2+z
_cell_length_a 17.11(12)
_cell_length_b 18.16(3)
_cell_length_c 17.86(2)
_cell_angle_alpha 90
_cell_angle_beta 91.32(2)
_cell_angle_gamma 90
_cell_formula_units_Z 8
loop_
_atom_type_symbol
_atom_type_radius_bond
C 0.68
La 1.87
N 0.68
O 0.68
loop_
_atom_site_label
_atom_site_type_symbol
_atom_site_fract_x
_atom_site_fract_y
_atom_site_fract_z
La1 La 1.2207(1) 0.1478(1) 0.7857(1)
O1 O 1.3247(7) 0.0552(6) 0.7953(6)
O2 O 1.3435(7) 0.2043(5) 0.8422(6)
O3 O 1.1839(6) 0.1017(6) 0.9097(6)
O4 O 1.1532(7) 0.2447(6) 0.8570(6)
O5 O 1.1489(6) 0.0378(5) 0.7489(6)
O6 O 1.1080(7) 0.1793(5) 0.7001(6)
N1 N 1.2575(9) 0.2647(6) 0.7035(7)
N2 N 1.2793(7) 0.1298(5) 0.6458(7)
C1 C 1.4370(11) -0.0184(10) 0.8056(9)
C2 C 1.3941(10) 0.0527(7) 0.8138(8)
C3 C 1.4387(10) 0.1128(8) 0.8389(11)
C4 C 1.4149(10) 0.1824(9) 0.8508(9)
C5 C 1.4647(10) 0.2451(9) 0.8794(10)
C6 C 1.1387(13) 0.0711(11) 1.0245(11)
C7 C 1.1531(10) 0.1252(10) 0.9644(10)
C8 C 1.1207(11) 0.1963(10) 0.9728(10)
C9 C 1.1201(10) 0.2496(9) 0.9199(9)
C10 C 1.0884(12) 0.3252(9) 0.9354(12)
C11 C 1.0569(11) -0.0580(9) 0.7221(11)
C12 C 1.0844(11) 0.0230(7) 0.7159(9)
C13 C 1.0374(9) 0.0694(8) 0.6743(9)
C14 C 1.0512(11) 0.1434(10) 0.6694(9)
C15 C 0.9946(10) 0.1932(10) 0.6222(10)
C16 C 1.2510(11) 0.3318(9) 0.7293(10)
C17 C 1.2570(14) 0.4005(11) 0.6902(13)
C18 C 1.2874(13) 0.3902(10) 0.6256(13)
C19 C 1.3025(9) 0.3241(12) 0.5881(11)
C20 C 1.3262(14) 0.3160(15) 0.5164(14)
C21 C 1.3314(12) 0.2521(12) 0.4858(11)
C22 C 1.3204(10) 0.1814(13) 0.5248(9)
C23 C 1.3305(13) 0.1123(13) 0.5007(11)
C24 C 1.3154(12) 0.0510(12) 0.5443(12)
C25 C 1.2892(10) 0.0617(9) 0.6170(8)
C26 C 1.2950(9) 0.1859(10) 0.6049(10)
C27 C 1.2838(9) 0.2603(9) 0.6334(9)
La2 La 0.7122(1) 0.1097(1) 0.7747(1)
O7 O 0.7907(7) 0.2204(6) 0.7736(6)
O8 O 0.8405(6) 0.0895(6) 0.8375(6)
O9 O 0.6761(7) 0.0049(7) 0.8540(6)
O10 O 0.6586(7) 0.1543(6) 0.8919(6)
O11 O 0.6142(6) 0.1982(5) 0.7258(6)
O12 O 0.6168(6) 0.0477(5) 0.6916(6)
N3 N 0.7737(7) 0.1238(5) 0.6315(6)
N4 N 0.7855(7) -0.0067(7) 0.7055(7)
C28 C 0.8896(11) 0.3129(10) 0.761(1)
C29 C 0.8607(11) 0.2371(7) 0.7819(8)
C30 C 0.9224(9) 0.1889(8) 0.8098(8)
C31 C 0.9058(10) 0.1187(8) 0.8360(7)
C32 C 0.9755(12) 0.0724(10) 0.8711(10)
C33 C 0.6396(11) -0.0829(9) 0.947(1)
C34 C 0.6513(12) -0.0065(9) 0.9182(12)
C35 C 0.6319(12) 0.0495(10) 0.9666(10)
C36 C 0.6384(11) 0.1219(12) 0.9565(9)
C37 C 0.6125(12) 0.1814(11) 1.0147(9)
C38 C 0.5088(10) 0.2697(9) 0.6753(10)
C39 C 0.5550(11) 0.1981(8) 0.6840(8)
C40 C 0.5268(10) 0.1352(9) 0.6457(9)
C41 C 0.5555(9) 0.0621(9) 0.6508(9)
C42 C 0.518(1) 0.0005(8) 0.6100(9)
C43 C 0.7620(11) 0.1869(9) 0.5949(10)
C44 C 0.7868(10) 0.1984(10) 0.5206(9)
C45 C 0.8253(14) 0.1391(11) 0.4916(11)
C46 C 0.8355(10) 0.0753(11) 0.5245(11)
C47 C 0.8723(12) 0.0178(11) 0.4904(10)
C48 C 0.8822(11) -0.0454(12) 0.5233(10)
C49 C 0.8506(10) -0.0602(10) 0.5995(12)
C50 C 0.8504(12) -0.1244(12) 0.6366(11)
C51 C 0.8239(10) -0.1336(7) 0.7068(12)
C52 C 0.7936(10) -0.0715(8) 0.7371(11)
C53 C 0.8138(10) -0.0006(8) 0.6362(10)
C54 C 0.8101(10) 0.0694(8) 0.5999(8)
#END

data_CSD_CIF_PEKWEH
_audit_creation_date 1998-11-04
_audit_creation_method CSD-ConQuest-V1
_database_code_CSD PEKWEH
_database_code_depnum_ccdc_archive 'CCDC 130424'
_chemical_formula_sum 'C27 H29 Ce1 N2 O6'
_chemical_formula_moiety
;
C27 H29 Ce1 N2 O6
;
_journal_coeditor_code "IUCr NA1347"
_journal_coden_Cambridge 591
_journal_volume 54
_journal_year 1998
_journal_page_first 1233
_journal_name_full 'Acta Crystallogr.,Sect.C:Cryst.Struct.Commun. '
loop_
_publ_author_name
"P.C.Christidis"
"I.A.Tossidis"
"D.G.Paschalidis"
"L.C.Tzavellas"
_chemical_name_systematic
;
tris(Acetylacetonato)-(1,10-phenanthroline)-cerium(iii)
;
_cell_volume   5496.494
_exptl_crystal_colour 'orange'
_exptl_crystal_density_diffrn 1.493
_exptl_special_details
;
as a rare earth complex, of importance for possible biochemical and medicinal 
activity
;
_exptl_crystal_description 'prism'
_exptl_crystal_preparation 'acetone'
_diffrn_ambient_temperature ?
_diffrn_special_details
;
The study was carried out at room temperature,in the range 283-303K

;
#These two values have been output from a single CSD field.
_refine_ls_R_factor_gt 0.043
_refine_ls_wR_factor_gt 0.043
_symmetry_cell_setting monoclinic
_symmetry_space_group_name_H-M 'P 21/n'
_symmetry_Int_Tables_number 14
loop_
_symmetry_equiv_pos_site_id
_symmetry_equiv_pos_as_xyz
1 x,y,z
2 1/2-x,1/2+y,1/2-z
3 -x,-y,-z
4 -1/2+x,-1/2-y,-1/2+z
_cell_length_a 16.912(1)
_cell_length_b 18.188(1)
_cell_length_c 17.872(1)
_cell_angle_alpha 90
_cell_angle_beta 91.009(4)
_cell_angle_gamma 90
_cell_formula_units_Z 8
loop_
_atom_type_symbol
_atom_type_radius_bond
C 0.68
H 0.23
Ce 1.83
N 0.68
O 0.68
loop_
_atom_site_label
_atom_site_type_symbol
_atom_site_fract_x
_atom_site_fract_y
_atom_site_fract_z
C1 C 0.9162(6) 0.5206(7) 0.7860(7)
C2 C 0.9619(7) 0.5702(7) 0.8257(7)
C3 C 0.9491(6) 0.6475(7) 0.8312(6)
C4 C 0.9415(8) 0.4414(7) 0.7804(10)
C5 C 1.0043(6) 0.6967(8) 0.8777(7)
C6 C 0.8516(7) 0.6249(9) 0.5347(7)
C7 C 0.8833(8) 0.6985(9) 0.5256(8)
C8 C 0.8793(8) 0.7529(9) 0.5808(8)
C9 C 0.8645(10) 0.5695(10) 0.4716(9)
C10 C 0.9173(11) 0.8251(9) 0.5659(9)
C11 C 0.5889(6) 0.6852(8) 0.6483(6)
C12 C 0.5586(7) 0.6150(8) 0.6596(7)
C13 C 0.5997(7) 0.5529(7) 0.6850(6)
C14 C 0.5333(7) 0.7459(8) 0.6215(9)
C15 C 0.5606(8) 0.4791(8) 0.6926(9)
C16 C 0.7537(9) 0.8334(6) 0.7695(9)
C17 C 0.736(1) 0.8957(8) 0.8122(12)
C18 C 0.7085(11) 0.8884(12) 0.8834(12)
C19 C 0.6972(8) 0.8215(10) 0.9138(10)
C20 C 0.7140(6) 0.7611(8) 0.8671(8)
C21 C 0.7044(6) 0.6881(8) 0.8995(7)
C22 C 0.6763(8) 0.6771(13) 0.9744(8)
C23 C 0.6598(15) 0.7375(17) 1.0199(13)
C24 C 0.6687(13) 0.8041(17) 0.9911(13)
C25 C 0.6704(10) 0.6071(15) 1.0039(9)
C26 C 0.6837(9) 0.5519(11) 0.9617(10)
C27 C 0.7112(8) 0.5613(8) 0.8848(8)
C28 C 1.4444(6) 0.5640(7) 0.8481(7)
C29 C 1.4722(7) 0.6344(8) 0.8544(6)
C30 C 1.4448(6) 0.6984(7) 0.8172(6)
C31 C 1.4812(8) 0.5019(9) 0.8910(8)
C32 C 1.4868(9) 0.7719(8) 0.8298(9)
C33 C 1.3612(7) 0.6262(11) 0.5451(7)
C34 C 1.3678(9) 0.5505(10) 0.5274(8)
C35 C 1.3530(8) 0.4967(9) 0.5792(8)
C36 C 1.3856(10) 0.6831(11) 0.4866(7)
C37 C 1.3701(13) 0.4182(10) 0.5562(10)
C38 C 1.0929(6) 0.6172(7) 0.6621(6)
C39 C 1.0781(6) 0.6908(7) 0.6893(6)
C40 C 1.1314(6) 0.7378(7) 0.7178(6)
C41 C 1.0266(7) 0.5693(8) 0.6288(7)
C42 C 1.1085(7) 0.8145(7) 0.7381(8)
C43 C 1.2072(7) 0.4290(7) 0.7604(8)
C44 C 1.1722(9) 0.3678(6) 0.7953(12)
C45 C 1.1443(9) 0.3756(10) 0.8646(11)
C46 C 1.1477(7) 0.4390(8) 0.9013(9)
C47 C 1.1859(6) 0.4992(7) 0.8639(7)
C48 C 1.1932(6) 0.5700(7) 0.9019(6)
C49 C 1.1625(8) 0.5779(9) 0.9776(7)
C50 C 1.1224(10) 0.5131(13) 1.009(1)
C51 C 1.1157(10) 0.4470(12) 0.973(1)
C52 C 1.1741(9) 0.6447(11) 1.0137(8)
C53 C 1.2083(8) 0.6990(9) 0.9791(8)
C54 C 1.2381(7) 0.6904(7) 0.9041(7)
N1 N 0.7402(5) 0.7658(5) 0.7982(6)
N2 N 0.7192(5) 0.6290(6) 0.8557(5)
N3 N 1.2131(5) 0.4944(4) 0.7944(5)
N4 N 1.2287(5) 0.6254(5) 0.8676(5)
O1 O 0.8540(4) 0.5379(4) 0.7530(5)
O2 O 0.8936(4) 0.6810(4) 0.7990(4)
O3 O 0.8159(5) 0.6019(5) 0.5915(5)
O4 O 0.8459(5) 0.7456(5) 0.6437(5)
O5 O 0.6609(5) 0.7028(4) 0.6574(5)
O6 O 0.6720(5) 0.5548(4) 0.7041(5)
O7 O 1.3858(4) 0.5478(4) 0.8069(5)
O8 O 1.3842(4) 0.7004(4) 0.7762(5)
O9 O 1.3413(5) 0.6534(5) 0.6074(5)
O10 O 1.3280(5) 0.5055(5) 0.6453(5)
O11 O 1.1612(4) 0.5875(4) 0.6625(4)
O12 O 1.2057(5) 0.7220(4) 0.7273(5)
Ce1 Ce 0.77931(3) 0.64775(3) 0.71522(3)
Ce2 Ce 1.28790(3) 0.60958(3) 0.72515(3)
H1 H 1.00655 0.55089 0.85206
H2 H 0.90804 0.71029 0.47983
H3 H 0.50379 0.60855 0.64895
H4 H 0.77485 0.83855 0.72087
H5 H 0.74322 0.94334 0.79164
H6 H 0.69708 0.93118 0.91182
H7 H 0.64276 0.73101 1.06978
H8 H 0.65583 0.84463 1.02221
H9 H 0.65656 0.60008 1.05467
H10 H 0.67573 0.50364 0.98048
H11 H 0.72336 0.51933 0.85548
H12 H 1.51564 0.64116 0.88815
H13 H 1.38289 0.53663 0.47843
H14 H 1.02492 0.70744 0.68665
H15 H 1.22723 0.42365 0.71137
H16 H 1.16854 0.32190 0.77010
H17 H 1.12121 0.33426 0.88826
H18 H 1.09988 0.51752 1.05717
H19 H 1.08957 0.40692 0.99603
H20 H 1.15709 0.65089 1.06368
H21 H 1.21379 0.74515 1.00366
H22 H 1.26425 0.73010 0.88050
#END

data_CSD_CIF_PELGOC
_audit_creation_date 1998-11-04
_audit_creation_method CSD-ConQuest-V1
_database_code_CSD PELGOC
_database_code_depnum_ccdc_archive 'CCDC 130425'
_chemical_formula_sum 'C27 H29 N2 O6 Pr1'
_chemical_formula_moiety
;
C27 H29 N2 O6 Pr1
;
_journal_coeditor_code "IUCr NA1347"
_journal_coden_Cambridge 591
_journal_volume 54
_journal_year 1998
_journal_page_first 1233
_journal_name_full 'Acta Crystallogr.,Sect.C:Cryst.Struct.Commun. '
loop_
_publ_author_name
"P.C.Christidis"
"I.A.Tossidis"
"D.G.Paschalidis"
"L.C.Tzavellas"
_chemical_name_systematic
;
tris(Acetylacetonato)-(1,10-phenanthroline)-praseodymium(iii)
;
_cell_volume   2964.819
_exptl_crystal_colour 'green'
_exptl_crystal_density_diffrn 1.385
_exptl_special_details
;
as a rare earth complex of importance for possible biochemical and medicinal 
activity
;
_exptl_crystal_description 'prism'
_exptl_crystal_preparation 'acetone'
_diffrn_ambient_temperature ?
_diffrn_special_details
;
The study was carried out at room temperature,in the range 283-303K

;
#These two values have been output from a single CSD field.
_refine_ls_R_factor_gt 0.043
_refine_ls_wR_factor_gt 0.043
_symmetry_cell_setting monoclinic
_symmetry_space_group_name_H-M 'P 21/n'
_symmetry_Int_Tables_number 14
loop_
_symmetry_equiv_pos_site_id
_symmetry_equiv_pos_as_xyz
1 x,y,z
2 1/2-x,1/2+y,1/2-z
3 -x,-y,-z
4 -1/2+x,-1/2-y,-1/2+z
_cell_length_a 9.515(1)
_cell_length_b 21.086(9)
_cell_length_c 14.978(2)
_cell_angle_alpha 90
_cell_angle_beta 99.39(1)
_cell_angle_gamma 90
_cell_formula_units_Z 4
loop_
_atom_type_symbol
_atom_type_radius_bond
C 0.68
H 0.23
N 0.68
O 0.68
Pr 1.82
loop_
_atom_site_label
_atom_site_type_symbol
_atom_site_fract_x
_atom_site_fract_y
_atom_site_fract_z
C1 C 0.5086(12) 0.8125(5) 0.3128(7)
C2 C 0.6476(14) 0.8352(5) 0.3367(8)
C3 C 0.7675(11) 0.7963(5) 0.3496(6)
C4 C 0.3830(19) 0.8602(6) 0.3064(13)
C5 C 0.9166(14) 0.8275(6) 0.3674(11)
C6 C 0.4526(10) 0.5952(5) 0.1311(6)
C7 C 0.5804(12) 0.5685(6) 0.1143(8)
C8 C 0.7141(11) 0.5807(6) 0.1656(8)
C9 C 0.3149(15) 0.5754(8) 0.0719(9)
C10 C 0.8492(15) 0.5504(10) 0.1354(13)
C11 C 0.5815(9) 0.4964(4) 0.3869(6)
C12 C 0.6998(11) 0.4985(5) 0.4571(7)
C13 C 0.7719(8) 0.5516(4) 0.4890(6)
C14 C 0.5113(16) 0.4337(5) 0.3575(10)
C15 C 0.8897(12) 0.5481(6) 0.5715(8)
C16 C 0.2254(7) 0.6229(4) 0.3370(5)
C17 C 0.0834(9) 0.6268(5) 0.3561(7)
C18 C 0.0578(8) 0.6592(6) 0.4288(7)
C19 C 0.1678(8) 0.6890(4) 0.4845(6)
C20 C 0.3077(7) 0.6848(3) 0.4614(4)
C21 C 0.4225(7) 0.7137(3) 0.5186(5)
C22 C 0.4016(11) 0.7457(4) 0.5987(6)
C23 C 0.2565(14) 0.7494(6) 0.6183(8)
C24 C 0.1476(12) 0.7225(6) 0.5646(9)
C25 C 0.5181(15) 0.7701(5) 0.6546(6)
C26 C 0.6509(12) 0.7648(5) 0.6327(6)
C27 C 0.6651(9) 0.7334(4) 0.5519(6)
N1 N 0.3323(5) 0.6522(3) 0.3883(3)
N2 N 0.5557(6) 0.7084(3) 0.4961(4)
O1 O 0.4735(6) 0.7563(3) 0.2976(4)
O2 O 0.7665(5) 0.7372(3) 0.3488(4)
O3 O 0.4431(6) 0.6342(3) 0.1929(3)
O4 O 0.7398(6) 0.6140(3) 0.2351(4)
O5 O 0.5283(6) 0.5444(3) 0.3456(4)
O6 O 0.7496(5) 0.6062(3) 0.4564(3)
Pr1 Pr 0.58718(3) 0.65508(2) 0.33746(2)
H1 H 0.66104 0.87961 0.34470
H2 H 0.57602 0.54021 0.06463
H3 H 0.73191 0.45931 0.48441
H4 H 0.24344 0.59873 0.28657
H5 H 0.00752 0.60659 0.31740
H6 H -0.03646 0.66158 0.44192
H7 H 0.23944 0.77161 0.67070
H8 H 0.05463 0.72552 0.57964
H9 H 0.50576 0.79090 0.70907
H10 H 0.73157 0.78187 0.67091
H11 H 0.75760 0.72978 0.53616
#END

data_CSD_CIF_QQQDTG
_audit_creation_date 1981-03-13
_audit_creation_method CSD-ConQuest-V1
_database_code_CSD QQQDTG
_chemical_formula_sum 'C28 H30 Cl3 Eu1 N2 O6'
_chemical_formula_moiety
;
C27 H29 Eu1 N2 O6,C1 H1 Cl3
;
_journal_coden_Cambridge 51
_journal_volume 8
_journal_year 1968
_journal_page_first 117
_journal_name_full 'Z.Chem. '
loop_
_publ_author_name
"W.Schmidt"
"E.Butter"
_chemical_name_systematic
;
tris(Acetylacetonato) europium(iii) -phenanthroline chloroform solvate
;
_cell_volume   6318.554
_exptl_crystal_density_diffrn 1.58
_exptl_special_details
;
No information on connectivity available

;
_diffrn_ambient_temperature ?
_diffrn_special_details
;
The study was carried out at room temperature,in the range 283-303K

;
_symmetry_cell_setting monoclinic
_symmetry_space_group_name_H-M 'P 21/a'
_symmetry_Int_Tables_number 14
_cell_length_a 19.7(1)
_cell_length_b 16.8(1)
_cell_length_c 19.1(1)
_cell_angle_alpha 90
_cell_angle_beta 91.7(5)
_cell_angle_gamma 90
_cell_formula_units_Z 8
#END

data_CSD_CIF_ROQBOQ
_audit_creation_date 2014-10-14
_audit_creation_method CSD-ConQuest-V1
_database_code_CSD ROQBOQ
_database_code_depnum_ccdc_archive 'CCDC 1007916'
_chemical_formula_sum 'C35 H36 N5 O6 Sm1'
_chemical_formula_moiety
;
C35 H36 N5 O6 Sm1
;
_journal_coden_Cambridge 95
_journal_year 2014
_journal_page_first 1493
_journal_name_full 'Izv.Akad.Nauk SSSR,Ser.Khim.(Russ.)(Russ.Chem.Bull.) '
loop_
_publ_author_name
"A.N.Gusev"
"V.F.Shul'gin"
"V.Linert"
"M.Khasegava"
"G.G.Aleksandrov"
"I.L.Eremenko"
_chemical_name_systematic
;
tris(acetylacetonato)-(5-phenyl-2-(pyridin-2-yl)-5,6-dihydro[1,2,4]triazolo[1,
5-c]quinazoline)-samarium
;
_cell_volume  21235.955
_exptl_crystal_density_diffrn 1.088
_diffrn_ambient_temperature 296
#These two values have been output from a single CSD field.
_refine_ls_R_factor_gt 0.0681
_refine_ls_wR_factor_gt 0.0681
_symmetry_cell_setting rhombohedral
_symmetry_space_group_name_H-M 'R -3'
_symmetry_Int_Tables_number 148
loop_
_symmetry_equiv_pos_site_id
_symmetry_equiv_pos_as_xyz
1 x,y,z
2 -y,x-y,z
3 -x+y,-x,z
4 2/3+x,1/3+y,1/3+z
5 2/3-y,1/3+x-y,1/3+z
6 2/3-x+y,1/3-x,1/3+z
7 1/3+x,2/3+y,2/3+z
8 1/3-y,2/3+x-y,2/3+z
9 1/3-x+y,2/3-x,2/3+z
10 -x,-y,-z
11 y,-x+y,-z
12 x-y,x,-z
13 -2/3-x,-1/3-y,-1/3-z
14 -2/3+y,-1/3-x+y,-1/3-z
15 -2/3+x-y,-1/3+x,-1/3-z
16 -1/3-x,-2/3-y,-2/3-z
17 -1/3+y,-2/3-x+y,-2/3-z
18 -1/3+x-y,-2/3+x,-2/3-z
_cell_length_a 29.227(3)
_cell_length_b 29.227(3)
_cell_length_c 28.706(3)
_cell_angle_alpha 90
_cell_angle_beta 90
_cell_angle_gamma 120
_cell_formula_units_Z 18
loop_
_atom_type_symbol
_atom_type_radius_bond
C 0.68
H 0.23
N 0.68
O 0.68
Sm 1.98
loop_
_atom_site_label
_atom_site_type_symbol
_atom_site_fract_x
_atom_site_fract_y
_atom_site_fract_z
Sm1 Sm 0.692189(18) 0.014445(18) 0.218394(15)
O1 O 0.7823(3) 0.0831(3) 0.2109(2)
O2 O 0.7016(3) 0.0935(3) 0.2481(3)
O3 O 0.6274(2) -0.0685(2) 0.18457(18)
O4 O 0.6162(3) -0.0231(3) 0.2653(2)
O5 O 0.7394(3) -0.0304(3) 0.2067(2)
O6 O 0.7253(3) 0.0078(3) 0.2911(2)
N1 N 0.7137(3) 0.0271(3) 0.1275(2)
N2 N 0.6271(3) 0.0315(3) 0.1631(2)
N3 N 0.5867(3) 0.0056(3) 0.0936(2)
N4 N 0.5550(3) 0.0104(3) 0.1264(2)
N5 N 0.4755(3) -0.0058(3) 0.1577(2)
H1 H 0.44210 -0.02810 0.15850
C1 C 0.8107(4) 0.1310(5) 0.2296(4)
C2 C 0.7863(7) 0.1561(5) 0.2522(4)
H2 H 0.80910 0.18930 0.26450
C3 C 0.7349(5) 0.1384(5) 0.2583(4)
C4 C 0.7196(5) 0.1755(5) 0.2795(5)
H3 H 0.68180 0.15830 0.28210
H4 H 0.73210 0.20630 0.26020
H5 H 0.73510 0.18580 0.30990
C5 C 0.8725(5) 0.1528(5) 0.2227(5)
H6 H 0.87760 0.12720 0.20600
H7 H 0.88930 0.15910 0.25260
H8 H 0.88790 0.18520 0.20540
C6 C 0.5776(4) -0.0970(3) 0.1889(3)
C7 C 0.5483(4) -0.0915(4) 0.2235(4)
H9 H 0.51170 -0.11190 0.22110
C8 C 0.5682(4) -0.0588(4) 0.2610(4)
C9 C 0.5302(5) -0.0656(5) 0.2997(4)
H10 H 0.54890 -0.04040 0.32390
H11 H 0.51480 -0.10070 0.31210
H12 H 0.50280 -0.05990 0.28760
C10 C 0.5517(5) -0.1388(4) 0.1504(4)
H13 H 0.57840 -0.13660 0.12950
H14 H 0.52690 -0.13280 0.13350
H15 H 0.53360 -0.17340 0.16430
C11 C 0.7782(4) -0.0298(4) 0.2281(4)
C12 C 0.7921(4) -0.0124(5) 0.2745(4)
H16 H 0.82160 -0.01220 0.28690
C13 C 0.7651(5) 0.0043(5) 0.3028(4)
C14 C 0.7834(6) 0.0191(7) 0.3523(4)
H17 H 0.76120 0.02980 0.36790
H18 H 0.81920 0.04770 0.35250
H19 H 0.78140 -0.01080 0.36810
C15 C 0.8099(5) -0.0488(6) 0.1991(5)
H20 H 0.79470 -0.05880 0.16850
H21 H 0.80890 -0.07860 0.21410
H22 H 0.84590 -0.02070 0.19650
C16 C 0.7578(4) 0.0305(4) 0.1105(3)
H23 H 0.78440 0.03590 0.13130
C17 C 0.7660(4) 0.0263(4) 0.0636(3)
H24 H 0.79750 0.02920 0.05320
C18 C 0.7271(4) 0.0179(4) 0.0333(3)
H25 H 0.73080 0.01420 0.00160
C19 C 0.6815(4) 0.0150(4) 0.0509(3)
H26 H 0.65440 0.01000 0.03080
C20 C 0.6764(3) 0.0195(3) 0.0974(3)
C21 C 0.6290(3) 0.0182(3) 0.1187(3)
C22 C 0.5809(4) 0.0271(3) 0.1666(3)
C23 C 0.5546(4) 0.0376(4) 0.2043(3)
C24 C 0.5789(5) 0.0606(5) 0.2464(3)
H27 H 0.61450 0.07210 0.25080
C25 C 0.5507(5) 0.0663(6) 0.2809(4)
H28 H 0.56760 0.08230 0.30860
C26 C 0.4970(5) 0.0490(5) 0.2761(4)
H29 H 0.47840 0.05340 0.30020
C27 C 0.4721(5) 0.0253(5) 0.2353(4)
H30 H 0.43620 0.01300 0.23170
C28 C 0.5010(4) 0.0198(4) 0.1992(3)
C29 C 0.5030(4) 0.0039(4) 0.1142(3)
H31 H 0.50830 0.03730 0.10130
C30 C 0.4719(4) -0.0388(5) 0.0807(3)
C31 C 0.4504(4) -0.0301(5) 0.0418(4)
H32 H 0.45650 0.00390 0.03640
C32 C 0.4202(6) -0.0692(8) 0.0100(5)
H33 H 0.40630 -0.06210 -0.01630
C33 C 0.4120(6) -0.1164(9) 0.0184(5)
H34 H 0.39230 -0.14310 -0.00290
C34 C 0.4315(7) -0.1288(7) 0.0582(7)
H35 H 0.42420 -0.16320 0.06360
C35 C 0.4625(5) -0.0878(5) 0.0897(5)
H36 H 0.47620 -0.09460 0.11640
#END

data_CSD_CIF_ROQBUW
_audit_creation_date 2014-10-14
_audit_creation_method CSD-ConQuest-V1
_database_code_CSD ROQBUW
_database_code_depnum_ccdc_archive 'CCDC 1007917'
_chemical_formula_sum 'C35 H36 N5 O6 Tb1'
_chemical_formula_moiety
;
C35 H36 N5 O6 Tb1
;
_journal_coden_Cambridge 95
_journal_year 2014
_journal_page_first 1493
_journal_name_full 'Izv.Akad.Nauk SSSR,Ser.Khim.(Russ.)(Russ.Chem.Bull.) '
loop_
_publ_author_name
"A.N.Gusev"
"V.F.Shul'gin"
"V.Linert"
"M.Khasegava"
"G.G.Aleksandrov"
"I.L.Eremenko"
_chemical_name_systematic
;
tris(acetylacetonato)-(5-phenyl-2-(pyridin-2-yl)-5,6-dihydro[1,2,4]triazolo[1,
5-c]quinazoline)-terbium(iii)
;
_cell_volume  21586.042
_exptl_crystal_density_diffrn 1.082
_diffrn_ambient_temperature 296
#These two values have been output from a single CSD field.
_refine_ls_R_factor_gt 0.081
_refine_ls_wR_factor_gt 0.081
_symmetry_cell_setting rhombohedral
_symmetry_space_group_name_H-M 'R -3'
_symmetry_Int_Tables_number 148
loop_
_symmetry_equiv_pos_site_id
_symmetry_equiv_pos_as_xyz
1 x,y,z
2 -y,x-y,z
3 -x+y,-x,z
4 2/3+x,1/3+y,1/3+z
5 2/3-y,1/3+x-y,1/3+z
6 2/3-x+y,1/3-x,1/3+z
7 1/3+x,2/3+y,2/3+z
8 1/3-y,2/3+x-y,2/3+z
9 1/3-x+y,2/3-x,2/3+z
10 -x,-y,-z
11 y,-x+y,-z
12 x-y,x,-z
13 -2/3-x,-1/3-y,-1/3-z
14 -2/3+y,-1/3-x+y,-1/3-z
15 -2/3+x-y,-1/3+x,-1/3-z
16 -1/3-x,-2/3-y,-2/3-z
17 -1/3+y,-2/3-x+y,-2/3-z
18 -1/3+x-y,-2/3+x,-2/3-z
_cell_length_a 29.4754(16)
_cell_length_b 29.4754
_cell_length_c 28.6895(19)
_cell_angle_alpha 90
_cell_angle_beta 90
_cell_angle_gamma 120
_cell_formula_units_Z 18
loop_
_atom_type_symbol
_atom_type_radius_bond
C 0.68
H 0.23
N 0.68
O 0.68
Tb 1.94
loop_
_atom_site_label
_atom_site_type_symbol
_atom_site_fract_x
_atom_site_fract_y
_atom_site_fract_z
Tb1 Tb 0.68858(2) 0.01299(2) 0.220297(19)
O1 O 0.7763(4) 0.0811(4) 0.2138(4)
O2 O 0.6943(5) 0.0881(4) 0.2512(4)
O3 O 0.6282(4) -0.0675(3) 0.1857(3)
O4 O 0.6149(4) -0.0259(4) 0.2674(3)
O5 O 0.7357(5) -0.0297(5) 0.2073(4)
O6 O 0.7207(4) 0.0070(5) 0.2923(3)
N1 N 0.7114(4) 0.0276(5) 0.1319(4)
N2 N 0.6240(4) 0.0290(5) 0.1667(4)
N3 N 0.5857(5) 0.0069(5) 0.0964(4)
N4 N 0.5536(5) 0.0097(5) 0.1277(4)
N5 N 0.4730(5) -0.0056(6) 0.1580(4)
H1 H 0.43970 -0.02680 0.15760
C1 C 0.8021(7) 0.1273(7) 0.2299(6)
C2 C 0.7819(8) 0.1538(8) 0.2523(7)
H2 H 0.80510 0.18750 0.26260
C3 C 0.7297(7) 0.1340(6) 0.2606(6)
C4 C 0.7112(11) 0.1692(9) 0.2837(10)
H3 H 0.67380 0.14980 0.28730
H4 H 0.72080 0.19920 0.26440
H5 H 0.72750 0.18040 0.31370
C5 C 0.8629(7) 0.1515(10) 0.2249(9)
H6 H 0.87010 0.12730 0.20870
H7 H 0.87870 0.15840 0.25530
H8 H 0.87720 0.18360 0.20760
C6 C 0.5793(6) -0.0970(5) 0.1883(5)
C7 C 0.5481(7) -0.0944(7) 0.2234(6)
H9 H 0.51200 -0.11610 0.22070
C8 C 0.5675(7) -0.0606(7) 0.2635(6)
C9 C 0.5307(8) -0.0704(8) 0.3022(7)
H10 H 0.54840 -0.04530 0.32660
H11 H 0.51790 -0.10510 0.31420
H12 H 0.50170 -0.06700 0.29110
C10 C 0.5526(7) -0.1365(7) 0.1494(7)
H13 H 0.57850 -0.13450 0.12790
H14 H 0.52860 -0.12890 0.13340
H15 H 0.53380 -0.17110 0.16240
C11 C 0.7743(6) -0.0277(7) 0.2297(6)
C12 C 0.7862(8) -0.0136(9) 0.2748(6)
H16 H 0.81400 -0.01590 0.28750
C13 C 0.7601(8) 0.0046(9) 0.3045(6)
C14 C 0.7769(11) 0.0164(15) 0.3535(8)
H17 H 0.75540 0.02740 0.36950
H18 H 0.81290 0.04390 0.35470
H19 H 0.77340 -0.01440 0.36830
C15 C 0.8079(9) -0.0427(12) 0.2008(8)
H20 H 0.79360 -0.05200 0.16990
H21 H 0.80830 -0.07190 0.21500
H22 H 0.84290 -0.01350 0.19920
C16 C 0.7556(6) 0.0325(7) 0.1140(5)
H23 H 0.78170 0.03760 0.13510
C17 C 0.7661(6) 0.0308(6) 0.0683(6)
H24 H 0.79810 0.03520 0.05820
C18 C 0.7269(6) 0.0224(6) 0.0376(5)
H25 H 0.73170 0.01970 0.00590
C19 C 0.6804(6) 0.0178(6) 0.0532(5)
H26 H 0.65410 0.01280 0.03240
C20 C 0.6744(5) 0.0208(5) 0.1007(4)
C21 C 0.6260(5) 0.0177(6) 0.1204(4)
C22 C 0.5760(6) 0.0233(5) 0.1695(5)
C23 C 0.5510(6) 0.0343(7) 0.2075(5)
C24 C 0.5728(7) 0.0535(7) 0.2498(6)
H27 H 0.60730 0.06220 0.25540
C25 C 0.5438(8) 0.0604(9) 0.2853(6)
H28 H 0.55950 0.07480 0.31370
C26 C 0.4925(9) 0.0459(10) 0.2779(7)
H29 H 0.47380 0.05180 0.30080
C27 C 0.4681(7) 0.0223(8) 0.2363(6)
H30 H 0.43240 0.00970 0.23280
C28 C 0.4966(6) 0.0173(6) 0.1995(5)
C29 C 0.5024(6) 0.0047(7) 0.1144(5)
H31 H 0.50850 0.03800 0.10140
C30 C 0.4726(6) -0.0375(7) 0.0806(5)
C31 C 0.4506(8) -0.0287(9) 0.0428(6)
H32 H 0.45560 0.00460 0.03790
C32 C 0.4210(9) -0.0679(15) 0.0114(8)
H33 H 0.40570 -0.06130 -0.01410
C33 C 0.4145(10) -0.1172(14) 0.0186(11)
H34 H 0.39740 -0.14340 -0.00350
C34 C 0.4337(12) -0.1269(13) 0.0587(15)
H35 H 0.42680 -0.16070 0.06530
C35 C 0.4630(8) -0.0867(10) 0.0892(9)
H36 H 0.47640 -0.09330 0.11610
#END

data_CSD_CIF_SELCIW
_audit_creation_date 2006-10-10
_audit_creation_method CSD-ConQuest-V1
_database_code_CSD SELCIW
_database_code_depnum_ccdc_archive 'CCDC 264393'
_chemical_formula_sum 'C25 H29 Lu1 N2 O6'
_chemical_formula_moiety
;
C25 H29 Lu1 N2 O6
;
_journal_coden_Cambridge 119
_journal_volume 789
_journal_year 2006
_journal_page_first 187
_journal_name_full 'J.Mol.Struct. '
loop_
_publ_author_name
"A.Yu.Rogachev"
"A.V.Mironov"
"S.I.Troyanov"
"N.P.Kuzmina"
"A.V.Nemukhin"
_chemical_name_systematic
;
tris(Acetylacetonato-O,O')-(2,2'-bipyridine-N,N')-lutetium(iii)
;
_cell_volume   5384.044
_exptl_crystal_colour 'colorless'
_exptl_crystal_preparation 'ethanol'
_diffrn_ambient_temperature 293
#These two values have been output from a single CSD field.
_refine_ls_R_factor_gt 0.0412
_refine_ls_wR_factor_gt 0.0412
_symmetry_cell_setting monoclinic
_symmetry_space_group_name_H-M 'P 21/c'
_symmetry_Int_Tables_number 14
loop_
_symmetry_equiv_pos_site_id
_symmetry_equiv_pos_as_xyz
1 x,y,z
2 -x,1/2+y,1/2-z
3 -x,-y,-z
4 x,-1/2-y,-1/2+z
_cell_length_a 18.845(3)
_cell_length_b 13.4173(14)
_cell_length_c 22.6139(17)
_cell_angle_alpha 90
_cell_angle_beta 109.676(9)
_cell_angle_gamma 90
_cell_formula_units_Z 8
loop_
_atom_type_symbol
_atom_type_radius_bond
C 0.68
H 0.23
Lu 1.72
N 0.68
O 0.68
loop_
_atom_site_label
_atom_site_type_symbol
_atom_site_fract_x
_atom_site_fract_y
_atom_site_fract_z
Lu1 Lu 0.119131(18) 0.17345(3) 0.151739(17)
O1 O 0.1662(3) 0.0424(5) 0.1143(3)
O2 O 0.0526(3) 0.1677(5) 0.0473(3)
C1 C 0.2039(6) -0.0887(8) 0.0606(5)
C2 C 0.1577(5) 0.0058(7) 0.0613(5)
C3 C 0.1082(6) 0.0439(8) 0.0058(5)
C4 C 0.0579(5) 0.1197(8) 0.0020(4)
C5 C 0.0030(6) 0.1487(10) -0.0621(5)
O3 O 0.2340(3) 0.1569(4) 0.2262(3)
O4 O 0.1044(4) 0.2245(5) 0.2434(3)
C6 C 0.3439(6) 0.1339(10) 0.3164(5)
C7 C 0.2599(6) 0.1601(7) 0.2855(5)
C8 C 0.2192(7) 0.1857(9) 0.3229(5)
C9 C 0.1436(7) 0.2145(9) 0.3013(5)
C10 C 0.1023(8) 0.2356(13) 0.3475(6)
O5 O 0.1960(3) 0.2586(5) 0.1107(3)
O6 O 0.0722(4) 0.3300(5) 0.1360(3)
C11 C 0.2432(8) 0.3532(12) 0.0418(7)
C12 C 0.1855(6) 0.3359(9) 0.0762(5)
C13 C 0.1279(7) 0.4055(10) 0.0702(5)
C14 C 0.0756(6) 0.3990(8) 0.1005(5)
C15 C 0.0177(7) 0.4851(9) 0.0899(6)
N1 N 0.0938(4) 0.0199(6) 0.2065(3)
N2 N -0.0155(4) 0.1403(6) 0.1389(4)
C16 C 0.1495(5) -0.0409(8) 0.2366(5)
C17 C 0.1399(7) -0.1178(8) 0.2735(6)
C18 C 0.073(1) -0.1332(12) 0.2794(7)
C19 C 0.0138(6) -0.0679(10) 0.2485(6)
C20 C 0.0266(6) 0.0074(7) 0.2134(5)
C21 C -0.0328(5) 0.0745(8) 0.1773(5)
C22 C -0.1052(7) 0.0720(9) 0.1796(7)
C23 C -0.1603(6) 0.1335(11) 0.1422(7)
C24 C -0.1428(6) 0.195(1) 0.1021(6)
C25 C -0.0694(5) 0.1973(9) 0.1002(4)
Lu2 Lu 0.392603(18) 0.68414(3) 0.342147(17)
O7 O 0.4687(3) 0.6774(5) 0.4451(3)
O8 O 0.3359(3) 0.5770(5) 0.3897(3)
C26 C 0.5275(7) 0.6683(11) 0.5544(5)
C27 C 0.4647(6) 0.6391(8) 0.4942(5)
C28 C 0.4068(7) 0.5734(9) 0.4960(5)
C29 C 0.3485(5) 0.5428(7) 0.4436(5)
C30 C 0.2969(6) 0.4622(8) 0.4517(6)
O9 O 0.3297(3) 0.7969(5) 0.3809(3)
O10 O 0.4631(4) 0.8243(5) 0.3561(3)
C31 C 0.2970(7) 0.916(1) 0.4449(6)
C32 C 0.3510(5) 0.8749(8) 0.4144(5)
C33 C 0.4194(6) 0.9223(8) 0.4235(5)
C34 C 0.4694(5) 0.8976(7) 0.3926(5)
C35 C 0.5410(7) 0.9625(9) 0.4025(7)
O11 O 0.2745(3) 0.6929(5) 0.2693(3)
O12 O 0.4101(3) 0.7203(5) 0.2488(3)
C36 C 0.1638(6) 0.6703(11) 0.1813(5)
C37 C 0.2499(6) 0.6871(8) 0.2101(5)
C38 C 0.2918(6) 0.6929(8) 0.1714(5)
C39 C 0.3687(6) 0.7114(7) 0.1910(5)
C40 C 0.4070(7) 0.7247(9) 0.1422(5)
N3 N 0.5119(3) 0.5993(5) 0.3421(3)
N4 N 0.3778(4) 0.5173(5) 0.2891(3)
C41 C 0.5791(5) 0.6428(8) 0.3722(4)
C42 C 0.6453(4) 0.6102(8) 0.3636(5)
C43 C 0.6411(5) 0.5317(9) 0.3242(5)
C44 C 0.5736(5) 0.4848(7) 0.2947(5)
C45 C 0.5091(4) 0.5192(6) 0.3045(4)
C46 C 0.4349(4) 0.4720(6) 0.2770(4)
C47 C 0.4240(6) 0.3857(7) 0.2425(5)
C48 C 0.3525(7) 0.3444(8) 0.2191(6)
C49 C 0.2949(5) 0.3886(7) 0.2334(5)
C50 C 0.3087(5) 0.4738(7) 0.2679(5)
H1 H 0.099(5) 0.009(6) -0.035(3)
H2 H 0.238(5) 0.174(6) 0.371(2)
H3 H 0.116(5) 0.464(5) 0.045(4)
H4 H 0.420(5) 0.548(6) 0.539(2)
H5 H 0.425(5) 0.980(5) 0.451(3)
H6 H 0.268(5) 0.675(6) 0.124(2)
H7 H 0.199(3) -0.031(4) 0.232(3)
H8 H 0.183(3) -0.170(4) 0.291(3)
H9 H 0.0676(18) -0.181(4) 0.311(3)
H10 H -0.038(3) -0.083(4) 0.247(3)
H11 H -0.1186(16) 0.020(5) 0.205(3)
H12 H -0.208(3) 0.140(4) 0.149(3)
H13 H -0.180(2) 0.236(5) 0.075(3)
H14 H -0.0594(15) 0.233(5) 0.065(3)
H15 H 0.5826(12) 0.699(5) 0.408(3)
H16 H 0.697(2) 0.644(5) 0.387(3)
H17 H 0.686(2) 0.510(4) 0.316(3)
H18 H 0.5726(12) 0.417(4) 0.271(3)
H19 H 0.468(2) 0.348(4) 0.239(3)
H20 H 0.3444(15) 0.280(4) 0.196(3)
H21 H 0.243(3) 0.358(4) 0.219(3)
H22 H 0.268(2) 0.504(4) 0.278(3)
#END

data_CSD_CIF_SELCOC
_audit_creation_date 2006-10-10
_audit_creation_method CSD-ConQuest-V1
_database_code_CSD SELCOC
_database_code_depnum_ccdc_archive 'CCDC 267006 (not 267005 as published)'
_chemical_formula_sum 'C27 H29 Lu1 N2 O6'
_chemical_formula_moiety
;
C27 H29 Lu1 N2 O6
;
_journal_coden_Cambridge 119
_journal_volume 789
_journal_year 2006
_journal_page_first 187
_journal_name_full 'J.Mol.Struct. '
loop_
_publ_author_name
"A.Yu.Rogachev"
"A.V.Mironov"
"S.I.Troyanov"
"N.P.Kuzmina"
"A.V.Nemukhin"
_chemical_name_systematic
;
tris(Acetylacetonato-O,O')-(1,10-phenanthroline-N,N')-lutetium(iii)
;
_cell_volume   2850.312
_exptl_crystal_density_diffrn 1.521
_exptl_crystal_preparation 'ethanol'
_diffrn_ambient_temperature 110
#These two values have been output from a single CSD field.
_refine_ls_R_factor_gt 0.0691
_refine_ls_wR_factor_gt 0.0691
_symmetry_cell_setting monoclinic
_symmetry_space_group_name_H-M 'P 21/n'
_symmetry_Int_Tables_number 14
loop_
_symmetry_equiv_pos_site_id
_symmetry_equiv_pos_as_xyz
1 x,y,z
2 1/2-x,1/2+y,1/2-z
3 -x,-y,-z
4 -1/2+x,-1/2-y,-1/2+z
_cell_length_a 9.465(2)
_cell_length_b 20.932(4)
_cell_length_c 14.548(3)
_cell_angle_alpha 90
_cell_angle_beta 98.54(3)
_cell_angle_gamma 90
_cell_formula_units_Z 4
loop_
_atom_type_symbol
_atom_type_radius_bond
C 0.68
H 0.23
Lu 1.72
N 0.68
O 0.68
loop_
_atom_site_label
_atom_site_type_symbol
_atom_site_fract_x
_atom_site_fract_y
_atom_site_fract_z
Lu1 Lu 0.07745(5) 0.15256(2) 0.34126(3)
O1 O -0.0558(12) 0.1350(5) 0.2013(7)
O2 O 0.2323(11) 0.1103(5) 0.2499(7)
O3 O 0.2385(9) 0.1109(5) 0.4553(7)
O4 O 0.0199(11) 0.0472(5) 0.3476(7)
O5 O -0.0409(12) 0.2470(5) 0.3002(7)
O6 O 0.2486(11) 0.2286(5) 0.3447(7)
N1 N 0.0543(11) 0.2067(5) 0.4932(7)
N2 N -0.1657(10) 0.1470(5) 0.3882(7)
C1 C -0.183(2) 0.0800(13) 0.0725(15)
H1 H -0.16050 0.06430 0.01290
H2 H -0.24250 0.11840 0.06210
H3 H -0.23470 0.04690 0.10160
C2 C -0.046(2) 0.0961(9) 0.1355(11)
C3 C 0.079(2) 0.0644(12) 0.1247(16)
C4 C 0.212(2) 0.0737(9) 0.1787(13)
C5 C 0.343(3) 0.0356(18) 0.165(2)
H4 H 0.40140 0.06050 0.12830
H5 H 0.31310 -0.00440 0.13280
H6 H 0.39800 0.02580 0.22600
C6 C 0.388(2) 0.0524(10) 0.5683(12)
H7 H 0.41120 0.00760 0.58380
H8 H 0.35820 0.07370 0.62210
H9 H 0.47320 0.07380 0.55180
C7 C 0.2696(16) 0.0554(7) 0.4874(10)
C8 C 0.2037(19) -0.0003(7) 0.4531(12)
C9 C 0.0797(18) -0.0013(6) 0.3848(10)
C10 C 0.009(3) -0.0652(9) 0.3547(18)
H10 H -0.07960 -0.06970 0.38170
H11 H 0.07390 -0.10020 0.37630
H12 H -0.01360 -0.06650 0.28670
C11 C -0.131(3) 0.3506(9) 0.3032(19)
H13 H -0.11810 0.38320 0.25690
H14 H -0.13930 0.37130 0.36260
H15 H -0.21910 0.32650 0.28210
C12 C -0.0055(19) 0.3057(7) 0.3154(10)
C13 C 0.132(2) 0.3288(8) 0.3340(14)
C14 C 0.256(2) 0.2884(7) 0.3452(12)
C15 C 0.399(2) 0.3191(10) 0.3578(16)
H16 H 0.42430 0.33320 0.42240
H17 H 0.39770 0.35610 0.31630
H18 H 0.47050 0.28830 0.34300
C16 C 0.1640(18) 0.2314(8) 0.5516(10)
H19 H 0.25790 0.22360 0.53850
C17 C 0.150(2) 0.2672(9) 0.6292(12)
H20 H 0.23130 0.28530 0.66590
C18 C 0.018(3) 0.2762(10) 0.6524(12)
H21 H 0.00710 0.29910 0.70730
C19 C -0.103(2) 0.2516(8) 0.5953(10)
C20 C -0.0787(14) 0.2150(6) 0.5157(8)
C21 C -0.1948(14) 0.1839(6) 0.4599(8)
C22 C -0.3351(15) 0.1908(9) 0.4813(11)
C23 C -0.4437(16) 0.1579(10) 0.4230(14)
H22 H -0.53940 0.16010 0.43530
C24 C -0.4138(16) 0.1236(11) 0.3508(10)
H23 H -0.48810 0.10460 0.30850
C25 C -0.2737(16) 0.1165(8) 0.3390(12)
H24 H -0.25280 0.08770 0.29240
C26 C -0.247(2) 0.2586(9) 0.6131(13)
H25 H -0.26660 0.28510 0.66270
C27 C -0.353(2) 0.2289(11) 0.5616(15)
H26 H -0.44560 0.23270 0.57800
#END

data_CSD_CIF_SETPIR
_audit_creation_date 2007-05-01
_audit_creation_method CSD-ConQuest-V1
_database_code_CSD SETPIR
_database_code_depnum_ccdc_archive 'CCDC 638310'
_chemical_formula_sum 'C27 H29 Er1 N2 O6'
_chemical_formula_moiety
;
C27 H29 Er1 N2 O6
;
_journal_coeditor_code "IUCr DN3035"
_journal_coden_Cambridge 591
_journal_volume 63
_journal_year 2007
_journal_page_first m74
_journal_name_full 'Acta Crystallogr.,Sect.C:Cryst.Struct.Commun. '
loop_
_publ_author_name
"G.M.Neelgund"
"S.A.Shivashankar"
"T.Narasimhamurthy"
"R.S.Rathore"
_chemical_name_systematic
;
tris(Acetylacetonato-\k^2^O,O')-(1,10-phenanthroline-\k^2^N,N')-erbium(iii)
;
_chemical_melting_point 524.15
_cell_volume   2880.987
_exptl_crystal_colour 'pale green'
_exptl_crystal_density_diffrn 1.487
_exptl_special_details
;
isostructural with Eu(iii), Pr(iii) and Sm(iii) analogues

;
_exptl_crystal_description 'plate'
_exptl_crystal_preparation 'ethanol'
_diffrn_ambient_temperature 295
#These two values have been output from a single CSD field.
_refine_ls_R_factor_gt 0.041
_refine_ls_wR_factor_gt 0.041
_symmetry_cell_setting monoclinic
_symmetry_space_group_name_H-M 'P 21/n'
_symmetry_Int_Tables_number 14
loop_
_symmetry_equiv_pos_site_id
_symmetry_equiv_pos_as_xyz
1 x,y,z
2 1/2-x,1/2+y,1/2-z
3 -x,-y,-z
4 -1/2+x,-1/2-y,-1/2+z
_cell_length_a 9.466(1)
_cell_length_b 21.025(3)
_cell_length_c 14.643(2)
_cell_angle_alpha 90
_cell_angle_beta 98.670(2)
_cell_angle_gamma 90
_cell_formula_units_Z 4
loop_
_atom_type_symbol
_atom_type_radius_bond
C 0.68
H 0.23
Er 1.73
N 0.68
O 0.68
loop_
_atom_site_label
_atom_site_type_symbol
_atom_site_fract_x
_atom_site_fract_y
_atom_site_fract_z
Er1 Er 0.42143(3) 0.346998(12) 0.159196(18)
O1 O 0.4798(5) 0.4531(2) 0.1535(3)
O2 O 0.2593(4) 0.3904(2) 0.0445(3)
O3 O 0.5576(5) 0.3651(2) 0.3004(3)
O4 O 0.2675(5) 0.3889(2) 0.2527(3)
O5 O 0.5372(5) 0.2514(2) 0.1995(3)
O6 O 0.2478(5) 0.2700(2) 0.1533(3)
N1 N 0.6665(5) 0.3516(2) 0.1115(3)
N2 N 0.4461(5) 0.2926(2) 0.0053(3)
C1 C 0.4199(8) 0.5018(3) 0.1154(5)
C2 C 0.2997(8) 0.4999(3) 0.0480(5)
H1 H 0.26270 0.53870 0.02510
C3 C 0.2305(7) 0.4459(3) 0.0121(5)
C4 C 0.4888(10) 0.5652(4) 0.1449(7)
H2 H 0.55460 0.55970 0.20100
H3 H 0.41620 0.59520 0.15500
H4 H 0.53920 0.58080 0.09730
C5 C 0.1125(9) 0.4496(4) -0.0693(5)
H5 H 0.05570 0.41160 -0.07210
H6 H 0.15330 0.45360 -0.12520
H7 H 0.05340 0.48580 -0.06260
C6 C 0.5465(9) 0.4055(4) 0.3626(5)
C7 C 0.4215(10) 0.4351(4) 0.3763(6)
H8 H 0.42580 0.46380 0.42510
C8 C 0.2906(10) 0.4252(5) 0.3228(7)
C9 C 0.6829(10) 0.4217(5) 0.4262(6)
H9 H 0.74600 0.38570 0.43120
H10 H 0.66080 0.43230 0.48630
H11 H 0.72830 0.45730 0.40170
C10 C 0.1583(11) 0.4588(7) 0.3475(9)
H12 H 0.10730 0.47870 0.29330
H13 H 0.18700 0.49060 0.39360
H14 H 0.09750 0.42830 0.37110
C11 C 0.5047(9) 0.1938(3) 0.1858(5)
C12 C 0.3657(10) 0.1710(4) 0.1664(6)
H15 H 0.35210 0.12720 0.16190
C13 C 0.2451(9) 0.2102(4) 0.1531(5)
C14 C 0.6290(12) 0.1476(4) 0.1947(8)
H16 H 0.68700 0.15300 0.25390
H17 H 0.68550 0.15580 0.14680
H18 H 0.59320 0.10490 0.18910
C15 C 0.0991(10) 0.1799(4) 0.1412(7)
H19 H 0.04050 0.20130 0.17960
H20 H 0.10810 0.13590 0.15860
H21 H 0.05570 0.18310 0.07770
C16 C 0.7740(7) 0.3820(3) 0.1603(5)
H22 H 0.75500 0.40980 0.20650
C17 C 0.9137(7) 0.3744(4) 0.1458(5)
H23 H 0.98720 0.39220 0.18720
C18 C 0.9442(7) 0.3423(4) 0.0745(6)
H24 H 1.03740 0.34140 0.06150
C19 C 0.8342(7) 0.3090(3) 0.0173(5)
C20 C 0.8543(10) 0.2715(5) -0.0612(6)
H25 H 0.94630 0.26650 -0.07520
C21 C 0.7465(11) 0.2435(4) -0.1148(6)
H26 H 0.76410 0.21950 -0.16520
C22 C 0.6039(9) 0.2501(3) -0.0955(5)
C23 C 0.4852(12) 0.2240(4) -0.1520(5)
H27 H 0.49760 0.20080 -0.20430
C24 C 0.3526(10) 0.2326(4) -0.1303(5)
H28 H 0.27290 0.21580 -0.16740
C25 C 0.3378(7) 0.2674(3) -0.0508(4)
H29 H 0.24620 0.27320 -0.03650
C26 C 0.5790(7) 0.2847(3) -0.0174(4)
C27 C 0.6953(6) 0.3158(3) 0.0393(4)
#END

data_CSD_CIF_VALPAC
_audit_creation_date 2016-03-10
_audit_creation_method CSD-ConQuest-V1
_database_code_CSD VALPAC
_database_code_depnum_ccdc_archive 'CCDC 1440297'
_chemical_formula_sum 'C40 H45 Eu1 N2 O7 S2'
_chemical_formula_moiety
;
C39 H41 Eu1 N2 O6 S2,C1 H4 O1
;
_journal_coden_Cambridge 222
_journal_volume 45
_journal_year 2016
_journal_page_first 5451
_journal_name_full 'Dalton Trans. '
loop_
_publ_author_name
"Jin-Feng Mei"
"Zhong-Peng Lv"
"Jian-Cheng Lai"
"Xiao-Yong Jia"
"Cheng-Hui Li"
"Jing-Lin Zuo"
"Xiao-Zeng You"
_chemical_name_systematic
;
tris(Acetylacetonato)-(5,6-bis(2,5-dimethyl-3-thienyl)-1,10-phenanthroline)-eu
ropium methanol solvate
;
_cell_volume   4076.293
_exptl_crystal_colour 'colorless'
_exptl_crystal_density_diffrn 1.437
_exptl_crystal_description 'block'
_diffrn_ambient_temperature 296
#These two values have been output from a single CSD field.
_refine_ls_R_factor_gt 0.0842
_refine_ls_wR_factor_gt 0.0842
_symmetry_cell_setting monoclinic
_symmetry_space_group_name_H-M 'P 21/n'
_symmetry_Int_Tables_number 14
loop_
_symmetry_equiv_pos_site_id
_symmetry_equiv_pos_as_xyz
1 x,y,z
2 1/2-x,1/2+y,1/2-z
3 -x,-y,-z
4 -1/2+x,-1/2-y,-1/2+z
_cell_length_a 15.514(8)
_cell_length_b 16.468(8)
_cell_length_c 16.153(8)
_cell_angle_alpha 90
_cell_angle_beta 98.977(8)
_cell_angle_gamma 90
_cell_formula_units_Z 4
loop_
_atom_type_symbol
_atom_type_radius_bond
C 0.68
H 0.23
Eu 1.98
N 0.68
O 0.68
S 1.02
loop_
_atom_site_label
_atom_site_type_symbol
_atom_site_fract_x
_atom_site_fract_y
_atom_site_fract_z
C1 C 0.0843(13) 0.3955(11) 0.5504(12)
H1 H 0.14070 0.42080 0.55610
H2 H 0.04130 0.43540 0.55890
H3 H 0.06990 0.37280 0.49520
C2 C 0.0856(9) 0.3277(8) 0.6161(8)
C3 C 0.0178(9) 0.3233(9) 0.6630(9)
H4 H -0.02810 0.35990 0.65110
C4 C 0.0152(9) 0.2669(8) 0.7270(9)
C5 C -0.0542(11) 0.2772(11) 0.7846(12)
H5 H -0.05220 0.23140 0.82170
H6 H -0.11100 0.28050 0.75120
H7 H -0.04280 0.32600 0.81690
C6 C -0.0797(10) 0.1402(10) 0.4654(11)
H8 H -0.11530 0.18440 0.47920
H9 H -0.11650 0.09640 0.44200
H10 H -0.04430 0.15830 0.42520
C7 C -0.0213(9) 0.1112(8) 0.5441(9)
C8 C -0.0494(10) 0.0515(9) 0.5968(11)
H11 H -0.10730 0.03490 0.58420
C9 C -0.0020(9) 0.0172(8) 0.6613(10)
C10 C -0.0434(12) -0.0505(9) 0.7067(13)
H12 H -0.00280 -0.06840 0.75420
H13 H -0.05820 -0.09530 0.66900
H14 H -0.09520 -0.03040 0.72530
C11 C 0.2837(13) 0.0979(12) 0.9496(9)
H15 H 0.27680 0.14550 0.98230
H16 H 0.33630 0.07020 0.97300
H17 H 0.23470 0.06250 0.95030
C12 C 0.2887(11) 0.1217(9) 0.8633(9)
C13 C 0.3664(11) 0.1564(9) 0.8441(10)
H18 H 0.41560 0.15480 0.88520
C14 C 0.3744(9) 0.1920(8) 0.7697(9)
C15 C 0.4604(10) 0.2275(10) 0.7595(11)
H19 H 0.49590 0.18650 0.73930
H20 H 0.48900 0.24740 0.81260
H21 H 0.45170 0.27140 0.72010
C16 C 0.2200(8) 0.1912(7) 0.4735(7)
H22 H 0.19840 0.24070 0.48890
C17 C 0.2383(9) 0.1840(7) 0.3941(8)
H23 H 0.22800 0.22720 0.35680
C18 C 0.2719(8) 0.1133(7) 0.3700(8)
H24 H 0.28480 0.10700 0.31600
C19 C 0.2866(7) 0.0498(6) 0.4287(7)
C20 C 0.2648(7) 0.0617(7) 0.5077(7)
C21 C 0.2771(6) -0.0019(6) 0.5684(7)
C22 C 0.3138(6) -0.0766(6) 0.5477(6)
C23 C 0.3211(7) -0.1377(7) 0.6080(7)
H25 H 0.34480 -0.18770 0.59690
C24 C 0.2938(7) -0.1247(7) 0.6835(7)
H26 H 0.29850 -0.16540 0.72390
C25 C 0.2586(7) -0.0485(7) 0.6985(7)
H27 H 0.23950 -0.03970 0.74960
C26 C 0.3206(7) -0.0283(7) 0.4071(7)
C27 C 0.33469(4) -0.08980(3) 0.46450(3)
C28 C 0.33400(4) -0.04298(3) 0.32078(3)
C29 C 0.26032(4) -0.06739(3) 0.25835(3)
H28 H 0.20590 -0.08200 0.27090
C30 C 0.28153(4) -0.06615(3) 0.17630(3)
C31 C 0.21883(4) -0.08316(3) 0.09392(3)
H29 H 0.16770 -0.11050 0.10640
H30 H 0.24760 -0.11680 0.05810
H31 H 0.20220 -0.03280 0.06610
C32 C 0.40769(4) -0.02820(3) 0.29060(3)
C33 C 0.49334(4) -0.00631(3) 0.32931(3)
H32 H 0.49220 0.00930 0.38640
H33 H 0.51380 0.03840 0.29950
H34 H 0.53180 -0.05190 0.32810
C34 C 0.36777(4) -0.16939(3) 0.44543(3)
C35 C 0.45351(4) -0.19473(3) 0.46423(3)
H35 H 0.49590 -0.15950 0.49090
C36 C 0.47769(4) -0.27712(3) 0.44221(3)
C37 C 0.56789(4) -0.30792(3) 0.46121(3)
H36 H 0.60660 -0.27080 0.43960
H37 H 0.57130 -0.36020 0.43560
H38 H 0.58440 -0.31280 0.52080
C38 C 0.31238(4) -0.23634(3) 0.40694(3)
C39 C 0.22789(4) -0.23022(3) 0.36911(3)
H39 H 0.20630 -0.17690 0.37830
H40 H 0.19320 -0.27000 0.39230
H41 H 0.22460 -0.23940 0.31000
Eu1 Eu 0.16828(4) 0.14578(3) 0.67074(3)
N1 N 0.2305(6) 0.1338(5) 0.5293(5)
N2 N 0.2514(6) 0.0113(5) 0.6431(6)
O1 O 0.1520(5) 0.2813(4) 0.6234(4)
O2 O 0.0702(6) 0.2117(5) 0.7477(5)
O3 O 0.0516(6) 0.1430(5) 0.5591(5)
O4 O 0.0762(5) 0.0372(5) 0.6942(6)
O5 O 0.2200(6) 0.1088(6) 0.8118(5)
O6 O 0.3172(2) 0.19340(19) 0.70596(19)
S1 S 0.3885(2) -0.04598(19) 0.17911(19)
S2 S 0.3938(2) -0.31192(19) 0.40069(19)
O7 O 0.062(3) 0.013(2) 0.884(3)
H42 H 0.11440 0.02210 0.88540
C40 C 0.015(2) 0.0868(16) 0.8715(19)
H43 H -0.04580 0.07660 0.87450
H44 H 0.01980 0.10870 0.81740
H45 H 0.03740 0.12500 0.91420
#END

data_CSD_CIF_XALFIA
_audit_creation_date 2005-08-11
_audit_creation_method CSD-ConQuest-V1
_database_code_CSD XALFIA
_database_code_depnum_ccdc_archive 'CCDC 268975'
_chemical_formula_sum 'C33 H37 Eu1 N2 O10'
_chemical_formula_moiety
;
C33 H37 Eu1 N2 O10
;
_journal_coden_Cambridge 9
_journal_volume 44
_journal_year 2005
_journal_page_first 1818
_journal_name_full 'Inorg.Chem. '
loop_
_publ_author_name
"A.Bellusci"
"G.Barberio"
"A.Crispini"
"M.Ghedini"
"M.La Deda"
"D.Pucci"
_chemical_name_systematic
;
tris(Acetylacetonato-O,O')-(diethyl 
1,10-phenanthroline-4,7-dicarboxylate-N,N')-europium(iii)
;
_cell_volume   6879.347
_exptl_crystal_colour 'colorless'
_exptl_crystal_density_diffrn 1.494
_exptl_special_details
;
The central carbon atoms of the acetylacetonato ligands were incorrectly 
assigned two hydrogen atoms
;
_exptl_crystal_description 'plate'
_diffrn_ambient_temperature 293
#These two values have been output from a single CSD field.
_refine_ls_R_factor_gt 0.0668
_refine_ls_wR_factor_gt 0.0668
_symmetry_cell_setting monoclinic
_symmetry_space_group_name_H-M 'C 2/c'
_symmetry_Int_Tables_number 15
loop_
_symmetry_equiv_pos_site_id
_symmetry_equiv_pos_as_xyz
1 x,y,z
2 1/2+x,1/2+y,z
3 -x,y,1/2-z
4 1/2-x,1/2+y,1/2-z
5 -x,-y,-z
6 -1/2-x,-1/2-y,-z
7 x,-y,-1/2+z
8 -1/2+x,-1/2-y,-1/2+z
_cell_length_a 15.303(3)
_cell_length_b 28.546(6)
_cell_length_c 16.856(3)
_cell_angle_alpha 90
_cell_angle_beta 110.89(3)
_cell_angle_gamma 90
_cell_formula_units_Z 8
loop_
_atom_type_symbol
_atom_type_radius_bond
C 0.68
H 0.23
Eu 1.99
N 0.68
O 0.68
loop_
_atom_site_label
_atom_site_type_symbol
_atom_site_fract_x
_atom_site_fract_y
_atom_site_fract_z
Eu1 Eu 0.06950(3) 0.351356(17) 0.00143(3)
O1 O 0.1114(4) 0.4109(2) 0.1055(4)
O2 O 0.0999(5) 0.4200(2) -0.0640(4)
O3 O 0.0890(5) 0.3177(3) -0.1189(4)
O4 O 0.2306(4) 0.3387(2) 0.0364(4)
O5 O 0.1029(5) 0.3061(3) 0.1254(4)
O6 O -0.0347(5) 0.2875(2) -0.0314(4)
O7 O -0.4225(6) 0.3903(4) -0.3289(5)
O8 O -0.3325(5) 0.4314(3) -0.3809(4)
O9 O -0.3840(6) 0.4077(5) 0.0886(5)
O10 O -0.2942(7) 0.3726(4) 0.2000(6)
N1 N -0.0895(5) 0.3798(3) -0.1156(5)
N2 N -0.0774(5) 0.3717(3) 0.0468(5)
C1 C -0.0929(7) 0.3845(4) -0.1939(6)
H1 H -0.03750 0.38190 -0.20450
C2 C -0.1771(7) 0.3934(3) -0.2634(6)
H2 H -0.17650 0.39630 -0.31820
C3 C -0.2588(7) 0.3977(3) -0.2487(6)
C4 C -0.2575(6) 0.3925(3) -0.1651(5)
C5 C -0.1710(6) 0.3843(3) -0.1004(6)
C6 C -0.1629(6) 0.3806(3) -0.0137(6)
C7 C -0.2463(6) 0.3862(3) 0.0079(6)
C8 C -0.3322(6) 0.3938(4) -0.0595(6)
H3 H -0.38640 0.39660 -0.04700
C9 C -0.3385(6) 0.3970(4) -0.1408(6)
H4 H -0.39660 0.40230 -0.18270
C10 C -0.0706(7) 0.3689(3) 0.1259(6)
H5 H -0.01190 0.36320 0.16670
C11 C -0.1469(7) 0.3739(3) 0.1530(6)
H6 H -0.13840 0.37090 0.21020
C12 C -0.2341(6) 0.3832(3) 0.0945(6)
C13 C -0.3472(8) 0.4064(5) -0.3231(6)
C14 C -0.4140(8) 0.4402(6) -0.4584(7)
H7 H -0.44310 0.41080 -0.48290
H8 H -0.45990 0.45910 -0.44530
C15 C -0.3807(11) 0.4649(6) -0.5178(9)
H9 H -0.43240 0.47100 -0.56940
H10 H -0.33520 0.44600 -0.53000
H11 H -0.35260 0.49400 -0.49310
C16 C -0.3136(7) 0.3901(4) 0.1256(7)
C17 C -0.3687(13) 0.3724(7) 0.2370(12)
H12 H -0.42920 0.36720 0.19300
H13 H -0.35760 0.34760 0.27890
C18 C -0.3667(11) 0.4176(8) 0.2766(12)
H14 H -0.41450 0.41870 0.30110
H15 H -0.37770 0.44180 0.23460
H16 H -0.30670 0.42220 0.32030
C19 C 0.1242(7) 0.4544(4) 0.1048(7)
C20 C 0.1154(8) 0.4619(4) -0.0441(7)
C21 C 0.1281(10) 0.4791(4) 0.0355(8)
H17 H 0.08300 0.50430 0.02650
C22 C 0.1218(10) 0.4944(4) -0.1107(8)
H18 H 0.11130 0.47730 -0.16240
H19 H 0.18290 0.50830 -0.09230
H20 H 0.07540 0.51850 -0.12050
C23 C 0.1389(10) 0.4784(4) 0.1887(8)
H21 H 0.13380 0.45580 0.22900
H22 H 0.09230 0.50230 0.18070
H23 H 0.20000 0.49240 0.20970
C24 C 0.1547(9) 0.2982(4) -0.1351(7)
C25 C 0.2474(9) 0.2992(4) -0.0789(8)
H24 H 0.28230 0.31440 -0.10970
C26 C 0.2811(7) 0.3183(4) 0.0019(7)
C27 C 0.1307(10) 0.2727(5) -0.2184(8)
H25 H 0.06460 0.27500 -0.24930
H26 H 0.14810 0.24040 -0.20790
H27 H 0.16400 0.28660 -0.25110
C28 C 0.3851(8) 0.3170(5) 0.0522(8)
H28 H 0.39740 0.33120 0.10660
H29 H 0.41780 0.33380 0.02200
H30 H 0.40600 0.28500 0.05980
C29 C 0.0723(8) 0.2694(4) 0.1471(7)
C30 C -0.0065(9) 0.2442(4) 0.0930(8)
H31 H -0.05260 0.24480 0.12030
C31 C -0.0543(8) 0.2555(4) 0.0077(8)
C32 C 0.1207(9) 0.2518(4) 0.2350(7)
H32 H 0.17230 0.27200 0.26410
H33 H 0.14340 0.22070 0.23290
H34 H 0.07760 0.25140 0.26480
C33 C -0.1401(10) 0.2270(5) -0.0412(9)
H35 H -0.16590 0.23820 -0.09860
H36 H -0.18590 0.23000 -0.01460
H37 H -0.12300 0.19470 -0.04140
H38? H 0.18920 0.49400 0.05480
H39? H 0.26770 0.26680 -0.07200
H40? H 0.01330 0.21190 0.09390
#END

data_CSD_CIF_XALFOG
_audit_creation_date 2005-08-11
_audit_creation_method CSD-ConQuest-V1
_database_code_CSD XALFOG
_database_code_depnum_ccdc_archive 'CCDC 268976'
_chemical_formula_sum 'C27 H33 Er1 N2 O8'
_chemical_formula_moiety
;
C27 H33 Er1 N2 O8
;
_journal_coden_Cambridge 9
_journal_volume 44
_journal_year 2005
_journal_page_first 1818
_journal_name_full 'Inorg.Chem. '
loop_
_publ_author_name
"A.Bellusci"
"G.Barberio"
"A.Crispini"
"M.Ghedini"
"M.La Deda"
"D.Pucci"
_chemical_name_systematic
;
tris(Acetylacetonato-O,O')-(4,4'-dimethoxy-2,2'-bipyridine-N,N')-erbium(iii)
;
_cell_volume   1445.762
_exptl_crystal_colour 'colorless'
_exptl_crystal_density_diffrn 1.571
_exptl_special_details
;
The central carbon atoms of the acetylacetonato ligands were incorrectly 
assigned two hydrogen atoms
;
_exptl_crystal_description 'plate'
_diffrn_ambient_temperature 293
_refine_special_details
;
One of the methyl moieties of one of the acetylacetonato ligands is 
disordered over two sets of positions.
;
#These two values have been output from a single CSD field.
_refine_ls_R_factor_gt 0.0269
_refine_ls_wR_factor_gt 0.0269
_symmetry_cell_setting monoclinic
_symmetry_space_group_name_H-M 'P 21'
_symmetry_Int_Tables_number 4
loop_
_symmetry_equiv_pos_site_id
_symmetry_equiv_pos_as_xyz
1 x,y,z
2 -x,1/2+y,-z
_cell_length_a 8.6406(12)
_cell_length_b 16.578(2)
_cell_length_c 10.1643(14)
_cell_angle_alpha 90
_cell_angle_beta 96.79(3)
_cell_angle_gamma 90
_cell_formula_units_Z 2
loop_
_atom_type_symbol
_atom_type_radius_bond
C 0.68
H 0.23
Er 1.73
N 0.68
O 0.68
loop_
_atom_site_label
_atom_site_type_symbol
_atom_site_fract_x
_atom_site_fract_y
_atom_site_fract_z
Er1 Er -0.015330(16) 0.26515(9) 0.872265(13)
O1 O -0.2059(12) 0.3498(6) 0.9370(9)
O2 O -0.207(1) 0.1819(5) 0.9409(8)
O3 O -0.1410(4) 0.2633(8) 0.6581(3)
O4 O 0.0312(13) 0.3907(5) 0.7778(8)
O5 O 0.0291(13) 0.1400(5) 0.7849(8)
O6 O 0.2362(4) 0.2689(8) 0.8167(3)
O7 O 0.3494(14) 0.4797(4) 1.3672(10)
O8 O 0.3590(14) 0.0518(5) 1.3729(8)
N1 N 0.1228(15) 0.3442(6) 1.0754(10)
N2 N 0.1136(14) 0.1859(5) 1.0618(9)
C1 C 0.1125(17) 0.4238(6) 1.0674(10)
H1 H 0.05510 0.44620 0.99310
C2 C 0.1840(15) 0.4767(7) 1.1658(13)
H2 H 0.17210 0.53240 1.16190
C3 C 0.2743(15) 0.4370(7) 1.2697(11)
C4 C 0.2825(17) 0.3522(8) 1.2711(13)
H3 H 0.34630 0.32540 1.33720
C5 C 0.1988(17) 0.3121(7) 1.1777(11)
C6 C 0.2014(17) 0.2226(7) 1.1695(12)
C7 C 0.2742(16) 0.1722(9) 1.2789(13)
H4 H 0.32200 0.19630 1.35580
C8 C 0.2718(12) 0.0898(6) 1.2677(11)
C9 C 0.1927(18) 0.0572(7) 1.1577(13)
H5 H 0.19020 0.00140 1.14780
C10 C 0.1178(15) 0.1038(6) 1.0628(12)
H6 H 0.06360 0.07750 0.99070
C11 C 0.355(2) 0.5655(7) 1.3655(13)
H7 H 0.41480 0.58460 1.44490
H8 H 0.25090 0.58670 1.36050
H9 H 0.40250 0.58330 1.28980
C12 C 0.3505(18) -0.0350(7) 1.3682(13)
H10 H 0.41290 -0.05710 1.44410
H11 H 0.38870 -0.05400 1.28890
H12 H 0.24410 -0.05170 1.36860
C13 C -0.3146(16) 0.3408(6) 1.0023(12)
C14 C -0.3686(7) 0.260(1) 1.0464(6)
H13 H -0.34920 0.26000 1.14230
C15 C -0.3214(14) 0.1926(8) 1.0094(12)
C16 C -0.4084(17) 0.4161(9) 1.0391(17)
H14 H -0.36580 0.46370 1.00320
H15 H -0.40150 0.42080 1.13370
H16 H -0.51560 0.41030 1.00300
C17 C -0.387(2) 0.1186(10) 1.0506(16)
H17 H -0.33660 0.07370 1.01420
H18 H -0.49680 0.11730 1.01960
H19 H -0.37320 0.11530 1.14550
C18 C -0.0968(7) 0.2861(4) 0.5552(6)
C19 C 0.0025(9) 0.3527(5) 0.5509(6)
H20 H 0.09510 0.33330 0.51560
C20 C 0.056(1) 0.4010(4) 0.6669(8)
C21 C -0.1979(16) 0.2798(10) 0.4282(11)
H21 H -0.27960 0.31930 0.42560
H22 H -0.24280 0.22680 0.41970
H23 H -0.13730 0.28940 0.35640
C22 C 0.143(2) 0.4822(12) 0.6524(15)
H24 H 0.17080 0.50550 0.73840
H25 H 0.07640 0.51860 0.59870
H26 H 0.23580 0.47250 0.61130
C23 C 0.1413(9) 0.1108(4) 0.7173(7)
C24 C 0.2654(7) 0.1564(4) 0.6815(7)
H27 H 0.35730 0.12260 0.69790
C25 C 0.3073(7) 0.2319(4) 0.7348(6)
C26 C 0.123(3) 0.0324(12) 0.6572(19)
H28 H 0.03770 0.00480 0.69010
H29 H 0.21700 0.00180 0.67870
H30 H 0.10220 0.03810 0.56280
C27 C 0.4487(6) 0.2658(16) 0.6898(6)
H31 H 0.47160 0.31690 0.73220
H32 H 0.43270 0.27320 0.59550
H33 H 0.53440 0.22960 0.71230
H34? H -0.48100 0.25960 1.02450
H35? H -0.04890 0.38950 0.48550
C28? C -0.1333(15) 0.2447(7) 0.4230(11)
H36? H -0.05760 0.20330 0.41440
H37? H -0.13020 0.28350 0.35320
H38? H -0.23530 0.22110 0.41730
H39? H 0.24610 0.16370 0.58630
#END

data_CSD_CIF_XUNYIP
_audit_creation_date 2010-09-24
_audit_creation_method CSD-ConQuest-V1
_database_code_CSD XUNYIP
_database_code_depnum_ccdc_archive 'CCDC 752071'
_chemical_formula_sum 'C38 H48 Eu2 N4 O12'
_chemical_formula_moiety
;
C38 H48 Eu2 N4 O12
;
_journal_coden_Cambridge 1145
_journal_volume 20
_journal_year 2010
_journal_page_first 2114
_journal_name_full 'J.Mater.Chem. '
loop_
_publ_author_name
"G.Zucchi"
"Taewoo Jeon"
"D.Tondelier"
"D.Aldakov"
"P.Thuery"
"M.Ephritikhine"
"B.Geffroy"
_chemical_name_systematic
;
(\m~2~-2,2'-Bipyrimidine)-hexakis(acetylacetonato)-di-europium
;
_cell_volume   1064.768
_exptl_crystal_colour 'colorless'
_exptl_crystal_density_diffrn 1.648
_exptl_special_details
;
isomorphous with the Tb and Sm analogues

;
_exptl_crystal_description 'platelet'
_diffrn_ambient_temperature 100
#These two values have been output from a single CSD field.
_refine_ls_R_factor_gt 0.0155
_refine_ls_wR_factor_gt 0.0155
_symmetry_cell_setting triclinic
_symmetry_space_group_name_H-M 'P -1'
_symmetry_Int_Tables_number 2
loop_
_symmetry_equiv_pos_site_id
_symmetry_equiv_pos_as_xyz
1 x,y,z
2 -x,-y,-z
_cell_length_a 9.2290(4)
_cell_length_b 9.8631(5)
_cell_length_c 12.4794(6)
_cell_angle_alpha 107.066(2)
_cell_angle_beta 97.152(3)
_cell_angle_gamma 96.245(3)
_cell_formula_units_Z 1
loop_
_atom_type_symbol
_atom_type_radius_bond
C 0.68
H 0.23
Eu 1.98
N 0.68
O 0.68
loop_
_atom_site_label
_atom_site_type_symbol
_atom_site_fract_x
_atom_site_fract_y
_atom_site_fract_z
Eu1 Eu 0.704437(9) 0.746892(9) 0.839593(8)
O1 O 0.82095(15) 0.66660(15) 0.98042(13)
O2 O 0.54224(15) 0.74772(14) 0.96903(12)
O3 O 0.78742(16) 0.54588(14) 0.72804(13)
O4 O 0.49578(15) 0.59035(15) 0.72722(13)
O5 O 0.79490(15) 0.82803(15) 0.69870(13)
O6 O 0.54530(15) 0.89928(14) 0.79078(12)
N1 N 0.98902(17) 0.83717(17) 0.88520(14)
N2 N 1.19610(17) 1.00680(17) 0.99930(14)
C1 C 1.0507(2) 0.9567(2) 0.96815(17)
C2 C 1.2852(2) 0.9267(2) 0.94029(19)
H1 H 1.38670 0.95720 0.95890
C3 C 1.2326(2) 0.8002(2) 0.85257(19)
H2 H 1.29620 0.74580 0.81270
C4 C 1.0816(2) 0.7591(2) 0.82732(18)
H3 H 1.04250 0.67510 0.76870
C5 C 0.9095(3) 0.5936(3) 1.1370(2)
H4 H 0.94270 0.51140 1.08930
H5 H 0.87260 0.56990 1.19890
H6 H 0.99050 0.67120 1.16640
C6 C 0.7878(2) 0.6383(2) 1.06827(19)
C7 C 0.6499(2) 0.6449(2) 1.10270(19)
H7 H 0.63400 0.61330 1.16410
C8 C 0.5338(2) 0.6961(2) 1.05067(18)
C9 C 0.3894(2) 0.6971(2) 1.0960(2)
H8 H 0.37410 0.79440 1.12860
H9 H 0.39260 0.64970 1.15310
H10 H 0.30970 0.64780 1.03500
C10 C 0.8383(3) 0.3488(3) 0.5847(2)
H11 H 0.91700 0.41000 0.57060
H12 H 0.78780 0.28180 0.51390
H13 H 0.87840 0.29740 0.63300
C11 C 0.7306(2) 0.4390(2) 0.64241(19)
C12 C 0.5803(2) 0.3994(2) 0.59919(19)
H14 H 0.55090 0.31740 0.53670
C13 C 0.4710(2) 0.4757(2) 0.64417(18)
C14 C 0.3109(2) 0.4181(3) 0.5927(2)
H15 H 0.27540 0.34480 0.62350
H16 H 0.30260 0.37830 0.51170
H17 H 0.25320 0.49470 0.61010
C15 C 0.8786(3) 0.9509(3) 0.5773(2)
H18 H 0.96250 1.01210 0.62860
H19 H 0.83760 0.99980 0.52740
H20 H 0.90910 0.86450 0.53330
C16 C 0.7634(2) 0.9135(2) 0.64424(18)
C17 C 0.6325(2) 0.9721(2) 0.64272(19)
H21 H 0.61370 1.02450 0.59300
C18 C 0.5283(2) 0.9561(2) 0.71198(18)
C19 C 0.3831(2) 1.0113(2) 0.6933(2)
H22 H 0.30520 0.93160 0.65890
H23 H 0.39020 1.06980 0.64420
H24 H 0.36190 1.06750 0.76500
Eu1A Eu 1.295563(9) 1.253108(9) 1.160407(8)
O1A O 1.17905(15) 1.33340(15) 1.01958(13)
O2A O 1.45776(15) 1.25228(14) 1.03097(12)
O3A O 1.21258(16) 1.45412(14) 1.27196(13)
O4A O 1.50422(15) 1.40965(15) 1.27278(13)
O5A O 1.20510(15) 1.17197(15) 1.30130(13)
O6A O 1.45470(15) 1.10072(14) 1.20922(12)
N1A N 1.01098(17) 1.16283(17) 1.11480(14)
N2A N 0.80390(17) 0.99320(17) 1.00070(14)
C1A C 0.9493(2) 1.0433(2) 1.03185(17)
C2A C 0.7148(2) 1.0733(2) 1.05971(19)
H1A H 0.61330 1.04280 1.04110
C3A C 0.7674(2) 1.1998(2) 1.14743(19)
H2A H 0.70380 1.25420 1.18730
C4A C 0.9184(2) 1.2409(2) 1.17268(18)
H3A H 0.95750 1.32490 1.23130
C5A C 1.0905(3) 1.4064(3) 0.8630(2)
H4A H 1.05730 1.48860 0.91070
H5A H 1.12740 1.43010 0.80110
H6A H 1.00950 1.32880 0.83360
C6A C 1.2122(2) 1.3617(2) 0.93173(19)
C7A C 1.3501(2) 1.3551(2) 0.89730(19)
H7A H 1.36600 1.38670 0.83590
C8A C 1.4662(2) 1.3039(2) 0.94933(18)
C9A C 1.6106(2) 1.3029(2) 0.9040(2)
H8A H 1.62590 1.20560 0.87140
H9A H 1.60740 1.35030 0.84690
H10A H 1.69030 1.35220 0.96500
C10A C 1.1617(3) 1.6512(3) 1.4153(2)
H11A H 1.08300 1.59000 1.42940
H12A H 1.21220 1.71820 1.48610
H13A H 1.12160 1.70260 1.36700
C11A C 1.2694(2) 1.5610(2) 1.35759(19)
C12A C 1.4197(2) 1.6006(2) 1.40081(19)
H14A H 1.44910 1.68260 1.46330
C13A C 1.5290(2) 1.5243(2) 1.35583(18)
C14A C 1.6891(2) 1.5819(3) 1.4073(2)
H15A H 1.72460 1.65520 1.37650
H16A H 1.69740 1.62170 1.48830
H17A H 1.74680 1.50530 1.38990
C15A C 1.1214(3) 1.0491(3) 1.4227(2)
H18A H 1.03750 0.98790 1.37140
H19A H 1.16240 1.00020 1.47260
H20A H 1.09090 1.13550 1.46670
C16A C 1.2366(2) 1.0865(2) 1.35576(18)
C17A C 1.3675(2) 1.0279(2) 1.35728(19)
H21A H 1.38630 0.97550 1.40700
C18A C 1.4717(2) 1.0439(2) 1.28802(18)
C19A C 1.6169(2) 0.9887(2) 1.3067(2)
H22A H 1.69480 1.06840 1.34110
H23A H 1.60980 0.93020 1.35580
H24A H 1.63810 0.93250 1.23500
#END

data_CSD_CIF_XUNYOV
_audit_creation_date 2010-09-24
_audit_creation_method CSD-ConQuest-V1
_database_code_CSD XUNYOV
_database_code_depnum_ccdc_archive 'CCDC 752072'
_chemical_formula_sum 'C38 H48 N4 O12 Tb2'
_chemical_formula_moiety
;
C38 H48 N4 O12 Tb2
;
_journal_coden_Cambridge 1145
_journal_volume 20
_journal_year 2010
_journal_page_first 2114
_journal_name_full 'J.Mater.Chem. '
loop_
_publ_author_name
"G.Zucchi"
"Taewoo Jeon"
"D.Tondelier"
"D.Aldakov"
"P.Thuery"
"M.Ephritikhine"
"B.Geffroy"
_chemical_name_systematic
;
(\m~2~-2,2'-Bipyrimidine)-hexakis(acetylacetonato)-di-terbium
;
_cell_volume   1064.219
_exptl_crystal_colour 'colorless'
_exptl_crystal_density_diffrn 1.671
_exptl_special_details
;
isomorphous with the Eu and Sm analogues

;
_exptl_crystal_description 'parallelepiped'
_diffrn_ambient_temperature 100
#These two values have been output from a single CSD field.
_refine_ls_R_factor_gt 0.0311
_refine_ls_wR_factor_gt 0.0311
_symmetry_cell_setting triclinic
_symmetry_space_group_name_H-M 'P -1'
_symmetry_Int_Tables_number 2
loop_
_symmetry_equiv_pos_site_id
_symmetry_equiv_pos_as_xyz
1 x,y,z
2 -x,-y,-z
_cell_length_a 9.2276(6)
_cell_length_b 9.8575(10)
_cell_length_c 12.4828(13)
_cell_angle_alpha 106.977(5)
_cell_angle_beta 97.121(6)
_cell_angle_gamma 96.480(6)
_cell_formula_units_Z 1
loop_
_atom_type_symbol
_atom_type_radius_bond
C 0.68
H 0.23
N 0.68
O 0.68
Tb 1.94
loop_
_atom_site_label
_atom_site_type_symbol
_atom_site_fract_x
_atom_site_fract_y
_atom_site_fract_z
Tb1 Tb 0.704144(18) 0.747256(19) 0.839968(15)
O1 O 0.8204(3) 0.6672(3) 0.9801(2)
O2 O 0.5426(3) 0.7479(3) 0.9690(2)
O3 O 0.7857(3) 0.5459(3) 0.7291(3)
O4 O 0.4946(3) 0.5917(3) 0.7272(2)
O5 O 0.7941(3) 0.8270(3) 0.6986(2)
O6 O 0.5465(3) 0.9002(3) 0.7913(2)
N1 N 0.9889(3) 0.8373(3) 0.8854(3)
N2 N 1.1963(3) 1.0071(3) 0.9993(3)
C1 C 1.0503(4) 0.9567(4) 0.9679(3)
C2 C 1.2853(5) 0.9274(5) 0.9405(4)
H1 H 1.38680 0.95850 0.95880
C3 C 1.2323(5) 0.7999(5) 0.8530(4)
H2 H 1.29590 0.74480 0.81390
C4 C 1.0814(4) 0.7595(4) 0.8274(4)
H3 H 1.04190 0.67610 0.76830
C5 C 0.9095(5) 0.5941(6) 1.1370(4)
H4 H 0.94090 0.51050 1.08990
H5 H 0.87320 0.57250 1.19990
H6 H 0.99170 0.67100 1.16480
C6 C 0.7871(5) 0.6389(5) 1.0676(4)
C7 C 0.6482(5) 0.6454(5) 1.1026(4)
H7 H 0.63200 0.61360 1.16390
C8 C 0.5334(5) 0.6967(4) 1.0507(4)
C9 C 0.3891(5) 0.6979(5) 1.0955(4)
H8 H 0.37600 0.79540 1.13050
H9 H 0.39020 0.64740 1.15070
H10 H 0.30900 0.65180 1.03400
C10 C 0.8359(5) 0.3475(5) 0.5867(4)
H11 H 0.91330 0.40760 0.56970
H12 H 0.78430 0.27760 0.51770
H13 H 0.87810 0.29940 0.63680
C11 C 0.7286(5) 0.4392(5) 0.6437(4)
C12 C 0.5774(5) 0.3994(5) 0.6003(4)
H14 H 0.54720 0.31680 0.53850
C13 C 0.4697(5) 0.4770(5) 0.6448(4)
C14 C 0.3089(5) 0.4208(5) 0.5928(4)
H15 H 0.27120 0.34940 0.62500
H16 H 0.30090 0.37880 0.51220
H17 H 0.25270 0.49850 0.60840
C15 C 0.8784(5) 0.9487(5) 0.5762(4)
H18 H 0.96350 1.00900 0.62690
H19 H 0.83760 0.99810 0.52670
H20 H 0.90700 0.86170 0.53180
C16 C 0.7635(5) 0.9126(5) 0.6445(4)
C17 C 0.6323(5) 0.9715(5) 0.6423(4)
H21 H 0.61300 1.02310 0.59190
C18 C 0.5295(4) 0.9559(4) 0.7124(4)
C19 C 0.3841(5) 1.0110(5) 0.6935(4)
H22 H 0.30660 0.93120 0.65660
H23 H 0.39270 1.07230 0.64650
H24 H 0.36120 1.06440 0.76530
Tb1A Tb 1.295856(18) 1.252744(19) 1.160032(15)
O1A O 1.1796(3) 1.3328(3) 1.0199(2)
O2A O 1.4574(3) 1.2521(3) 1.0310(2)
O3A O 1.2143(3) 1.4541(3) 1.2709(3)
O4A O 1.5054(3) 1.4083(3) 1.2728(2)
O5A O 1.2059(3) 1.1730(3) 1.3014(2)
O6A O 1.4535(3) 1.0998(3) 1.2087(2)
N1A N 1.0111(3) 1.1627(3) 1.1146(3)
N2A N 0.8037(3) 0.9929(3) 1.0007(3)
C1A C 0.9497(4) 1.0433(4) 1.0321(3)
C2A C 0.7147(5) 1.0726(5) 1.0595(4)
H1A H 0.61320 1.04150 1.04120
C3A C 0.7677(5) 1.2001(5) 1.1470(4)
H2A H 0.70410 1.25520 1.18610
C4A C 0.9186(4) 1.2405(4) 1.1726(4)
H3A H 0.95810 1.32390 1.23170
C5A C 1.0905(5) 1.4059(6) 0.8630(4)
H4A H 1.05910 1.48950 0.91010
H5A H 1.12680 1.42750 0.80010
H6A H 1.00830 1.32900 0.83520
C6A C 1.2129(5) 1.3611(5) 0.9324(4)
C7A C 1.3518(5) 1.3546(5) 0.8974(4)
H7A H 1.36800 1.38640 0.83610
C8A C 1.4666(5) 1.3033(4) 0.9493(4)
C9A C 1.6109(5) 1.3021(5) 0.9045(4)
H8A H 1.62400 1.20460 0.86950
H9A H 1.60980 1.35260 0.84930
H10A H 1.69100 1.34820 0.96600
C10A C 1.1641(5) 1.6525(5) 1.4133(4)
H11A H 1.08670 1.59240 1.43030
H12A H 1.21570 1.72240 1.48230
H13A H 1.12190 1.70060 1.36320
C11A C 1.2714(5) 1.5608(5) 1.3563(4)
C12A C 1.4226(5) 1.6006(5) 1.3997(4)
H14A H 1.45280 1.68320 1.46150
C13A C 1.5303(5) 1.5230(5) 1.3552(4)
C14A C 1.6911(5) 1.5792(5) 1.4072(4)
H15A H 1.72880 1.65060 1.37500
H16A H 1.69910 1.62120 1.48780
H17A H 1.74730 1.50150 1.39160
C15A C 1.1216(5) 1.0513(5) 1.4238(4)
H18A H 1.03650 0.99100 1.37310
H19A H 1.16240 1.00190 1.47330
H20A H 1.09300 1.13830 1.46820
C16A C 1.2365(5) 1.0874(5) 1.3555(4)
C17A C 1.3677(5) 1.0285(5) 1.3577(4)
H21A H 1.38700 0.97690 1.40810
C18A C 1.4705(4) 1.0441(4) 1.2876(4)
C19A C 1.6159(5) 0.9890(5) 1.3065(4)
H22A H 1.69340 1.06880 1.34340
H23A H 1.60730 0.92770 1.35350
H24A H 1.63880 0.93560 1.23470
#END

data_CSD_CIF_XUNYUB
_audit_creation_date 2010-09-24
_audit_creation_method CSD-ConQuest-V1
_database_code_CSD XUNYUB
_database_code_depnum_ccdc_archive 'CCDC 752073'
_chemical_formula_sum 'C38 H48 N4 O12 Sm2'
_chemical_formula_moiety
;
C38 H48 N4 O12 Sm2
;
_journal_coden_Cambridge 1145
_journal_volume 20
_journal_year 2010
_journal_page_first 2114
_journal_name_full 'J.Mater.Chem. '
loop_
_publ_author_name
"G.Zucchi"
"Taewoo Jeon"
"D.Tondelier"
"D.Aldakov"
"P.Thuery"
"M.Ephritikhine"
"B.Geffroy"
_chemical_name_systematic
;
(\m~2~-2,2'-Bipyrimidine)-hexakis(acetylacetonato)-di-samarium
;
_cell_volume   1073.714
_exptl_crystal_colour 'colorless'
_exptl_crystal_density_diffrn 1.629
_exptl_special_details
;
isomorphous with the Eu and Tb analogues

;
_exptl_crystal_description 'parallelepiped'
_diffrn_ambient_temperature 100
#These two values have been output from a single CSD field.
_refine_ls_R_factor_gt 0.0331
_refine_ls_wR_factor_gt 0.0331
_symmetry_cell_setting triclinic
_symmetry_space_group_name_H-M 'P -1'
_symmetry_Int_Tables_number 2
loop_
_symmetry_equiv_pos_site_id
_symmetry_equiv_pos_as_xyz
1 x,y,z
2 -x,-y,-z
_cell_length_a 9.2497(7)
_cell_length_b 9.9437(10)
_cell_length_c 12.4584(13)
_cell_angle_alpha 107.516(5)
_cell_angle_beta 96.940(6)
_cell_angle_gamma 95.639(6)
_cell_formula_units_Z 1
loop_
_atom_type_symbol
_atom_type_radius_bond
C 0.68
H 0.23
N 0.68
O 0.68
Sm 1.98
loop_
_atom_site_label
_atom_site_type_symbol
_atom_site_fract_x
_atom_site_fract_y
_atom_site_fract_z
Sm1 Sm 0.70445(2) 0.74542(2) 0.838459(16)
O1 O 0.8224(3) 0.6657(3) 0.9825(2)
O2 O 0.5430(3) 0.7481(3) 0.9719(2)
O3 O 0.7912(3) 0.5455(3) 0.7216(2)
O4 O 0.4966(3) 0.5830(3) 0.7256(2)
O5 O 0.7970(3) 0.8333(3) 0.6990(2)
O6 O 0.5412(3) 0.8965(3) 0.7880(2)
N1 N 0.9903(3) 0.8360(4) 0.8857(3)
N2 N 1.1962(3) 1.0048(3) 0.9987(3)
C1 C 1.0514(4) 0.9560(4) 0.9690(3)
C2 C 1.2850(4) 0.9244(5) 0.9403(4)
H1 H 1.38580 0.95470 0.95770
C3 C 1.2324(5) 0.7953(5) 0.8533(3)
H2 H 1.29570 0.73900 0.81410
C4 C 1.0839(4) 0.7572(4) 0.8293(3)
H3 H 1.04540 0.67290 0.77140
C5 C 0.9105(5) 0.5915(6) 1.1377(4)
H4 H 0.94260 0.50850 1.08960
H5 H 0.87470 0.56980 1.20060
H6 H 0.99160 0.66740 1.16590
C6 C 0.7883(5) 0.6368(5) 1.0696(4)
C7 C 0.6499(5) 0.6429(5) 1.1029(4)
H7 H 0.63320 0.60920 1.16290
C8 C 0.5342(5) 0.6956(4) 1.0531(3)
C9 C 0.3901(5) 0.6960(5) 1.0982(4)
H8 H 0.37580 0.79250 1.13470
H9 H 0.39180 0.64470 1.15230
H10 H 0.31110 0.65120 1.03620
C10 C 0.8463(5) 0.3519(6) 0.5756(4)
H11 H 0.92270 0.41510 0.56270
H12 H 0.79720 0.28660 0.50390
H13 H 0.88850 0.29960 0.62190
C11 C 0.7362(5) 0.4379(5) 0.6362(4)
C12 C 0.5860(5) 0.3969(5) 0.5946(4)
H14 H 0.55800 0.31600 0.53120
C13 C 0.4755(5) 0.4689(5) 0.6416(3)
C14 C 0.3170(5) 0.4077(5) 0.5911(4)
H15 H 0.28540 0.33460 0.62230
H16 H 0.30870 0.36780 0.50980
H17 H 0.25630 0.48190 0.60900
C15 C 0.8789(5) 0.9573(5) 0.5795(4)
H18 H 0.96510 1.01030 0.63160
H19 H 0.84070 1.01440 0.53580
H20 H 0.90400 0.87200 0.52900
C16 C 0.7635(5) 0.9183(5) 0.6456(3)
C17 C 0.6309(5) 0.9749(5) 0.6439(4)
H21 H 0.61210 1.02810 0.59520
C18 C 0.5256(4) 0.9562(4) 0.7110(3)
C19 C 0.3803(5) 1.0104(5) 0.6930(4)
H22 H 0.30400 0.93100 0.65750
H23 H 0.38690 1.06940 0.64490
H24 H 0.35780 1.06500 0.76530
Sm1A Sm 1.29555(2) 1.25458(2) 1.161541(16)
O1A O 1.1776(3) 1.3343(3) 1.0175(2)
O2A O 1.4570(3) 1.2519(3) 1.0281(2)
O3A O 1.2088(3) 1.4545(3) 1.2784(2)
O4A O 1.5034(3) 1.4170(3) 1.2744(2)
O5A O 1.2030(3) 1.1667(3) 1.3010(2)
O6A O 1.4588(3) 1.1035(3) 1.2120(2)
N1A N 1.0097(3) 1.1640(4) 1.1143(3)
N2A N 0.8038(3) 0.9952(3) 1.0013(3)
C1A C 0.9486(4) 1.0440(4) 1.0310(3)
C2A C 0.7150(4) 1.0756(5) 1.0597(4)
H1A H 0.61420 1.04530 1.04230
C3A C 0.7676(5) 1.2047(5) 1.1467(3)
H2A H 0.70430 1.26100 1.18590
C4A C 0.9161(4) 1.2428(4) 1.1707(3)
H3A H 0.95460 1.32710 1.22860
C5A C 1.0895(5) 1.4085(6) 0.8623(4)
H4A H 1.05740 1.49150 0.91040
H5A H 1.12530 1.43020 0.79940
H6A H 1.00840 1.33260 0.83410
C6A C 1.2117(5) 1.3632(5) 0.9304(4)
C7A C 1.3501(5) 1.3571(5) 0.8971(4)
H7A H 1.36680 1.39080 0.83710
C8A C 1.4658(5) 1.3044(4) 0.9469(3)
C9A C 1.6099(5) 1.3040(5) 0.9018(4)
H8A H 1.62420 1.20750 0.86530
H9A H 1.60820 1.35530 0.84770
H10A H 1.68890 1.34880 0.96380
C10A C 1.1537(5) 1.6481(6) 1.4244(4)
H11A H 1.07730 1.58490 1.43730
H12A H 1.20280 1.71340 1.49610
H13A H 1.11150 1.70040 1.37810
C11A C 1.2638(5) 1.5621(5) 1.3638(4)
C12A C 1.4140(5) 1.6031(5) 1.4054(4)
H14A H 1.44200 1.68400 1.46880
C13A C 1.5245(5) 1.5311(5) 1.3584(3)
C14A C 1.6830(5) 1.5923(5) 1.4089(4)
H15A H 1.71460 1.66540 1.37770
H16A H 1.69130 1.63220 1.49020
H17A H 1.74370 1.51810 1.39100
C15A C 1.1211(5) 1.0427(5) 1.4205(4)
H18A H 1.03490 0.98970 1.36840
H19A H 1.15930 0.98560 1.46420
H20A H 1.09600 1.12800 1.47100
C16A C 1.2365(5) 1.0817(5) 1.3544(3)
C17A C 1.3691(5) 1.0251(5) 1.3561(4)
H21A H 1.38790 0.97190 1.40480
C18A C 1.4744(4) 1.0438(4) 1.2890(3)
C19A C 1.6197(5) 0.9896(5) 1.3070(4)
H22A H 1.69600 1.06900 1.34250
H23A H 1.61310 0.93060 1.35510
H24A H 1.64220 0.93500 1.23470
#END
