
#######################################################################
#
#                 Cambridge Crystallographic Data Centre
#                                CCDC
#
#######################################################################
#
# If this CIF has been generated from an entry in the Cambridge
# Structural Database, then it will include bibliographic, chemical,
# crystal, experimental, refinement or atomic coordinate data resulting
# from the CCDC's data processing and validation procedures.
#
#######################################################################

data_CSD_CIF_ANAJEG
_audit_creation_date 2016-05-19
_audit_creation_method CSD-ConQuest-V1
_database_code_CSD ANAJEG
_database_code_depnum_ccdc_archive 'CCDC 1433007'
_chemical_formula_sum 'C104 H84 Dy2 N4 O14'
_chemical_formula_moiety
;
C104 H80 Dy2 N4 O12,2(H2 O1)
;
_journal_coden_Cambridge 1350
_journal_volume 18
_journal_year 2016
_journal_page_first 4627
_journal_name_full 'CrystEngComm '
loop_
_publ_author_name
"Ou Sun"
"Peng Chen"
"Hong-Feng Li"
"Ting Gao"
"Wen-Bin Sun"
"Guang-Ming Li"
"Peng-Fei Yan"
_chemical_name_systematic
;
(\m-N,N'-ethane-1,2-diylbis(1-(pyridin-2-yl)methanimine))-hexakis(1,3-diphenyl
propane-1,3-dionato)-di-dysprosium dihydrate
;
_cell_volume   2247.129
_exptl_crystal_colour 'metallic light yellow'
_exptl_crystal_density_diffrn 1.43
_exptl_crystal_description 'block'
_diffrn_ambient_temperature 293.1
#These two values have been output from a single CSD field.
_refine_ls_R_factor_gt 0.0354
_refine_ls_wR_factor_gt 0.0354
_symmetry_cell_setting triclinic
_symmetry_space_group_name_H-M 'P -1'
_symmetry_Int_Tables_number 2
loop_
_symmetry_equiv_pos_site_id
_symmetry_equiv_pos_as_xyz
1 x,y,z
2 -x,-y,-z
_cell_length_a 13.1920(11)
_cell_length_b 13.5237(10)
_cell_length_c 14.1426(8)
_cell_angle_alpha 85.880(5)
_cell_angle_beta 89.094(6)
_cell_angle_gamma 63.263(8)
_cell_formula_units_Z 1
loop_
_atom_type_symbol
_atom_type_radius_bond
C 0.68
H 0.23
Dy 1.92
N 0.68
O 0.68
loop_
_atom_site_label
_atom_site_type_symbol
_atom_site_fract_x
_atom_site_fract_y
_atom_site_fract_z
Dy1 Dy 0.745987(17) 0.645629(16) 0.665129(14)
O1 O 0.5954(3) 0.6413(3) 0.7493(2)
O2 O 0.7973(3) 0.4587(3) 0.7032(2)
O3 O 0.9102(3) 0.6651(3) 0.6595(2)
O4 O 0.8139(3) 0.6197(3) 0.8206(2)
O5 O 0.6580(3) 0.8199(3) 0.7174(2)
O6 O 0.7064(3) 0.7719(3) 0.5335(2)
N1 N 0.8536(3) 0.5235(3) 0.5318(3)
N2 N 0.6216(3) 0.6134(3) 0.5406(3)
C1 C 0.5815(4) 0.5674(4) 0.7986(3)
C2 C 0.6529(4) 0.4539(4) 0.8001(3)
H1 H 0.63250 0.40680 0.83800
C3 C 0.7523(4) 0.4058(4) 0.7493(3)
C4 C 0.8135(4) 0.2812(4) 0.7455(3)
C5 C 0.9247(5) 0.2304(4) 0.7137(4)
H2 H 0.96090 0.27390 0.69640
C6 C 0.9824(5) 0.1168(5) 0.7074(5)
H3 H 1.05700 0.08440 0.68710
C7 C 0.9294(6) 0.0525(5) 0.7311(5)
H4 H 0.96800 -0.02390 0.72690
C8 C 0.8183(6) 0.1005(5) 0.7615(6)
H5 H 0.78170 0.05660 0.77590
C9 C 0.7619(5) 0.2131(5) 0.7702(5)
H6 H 0.68830 0.24420 0.79300
C10 C 0.4789(4) 0.6080(4) 0.8594(3)
C11 C 0.4223(5) 0.5453(5) 0.8852(4)
H7 H 0.44860 0.47410 0.86500
C12 C 0.3267(5) 0.5882(6) 0.9413(4)
H8 H 0.28920 0.54570 0.95810
C13 C 0.2874(5) 0.6926(6) 0.9718(4)
H9 H 0.22300 0.72100 1.00890
C14 C 0.3431(5) 0.7557(6) 0.9479(4)
H10 H 0.31760 0.82600 0.96980
C15 C 0.4384(5) 0.7133(5) 0.8901(4)
H11 H 0.47470 0.75660 0.87230
C16 C 0.9546(4) 0.7023(4) 0.7186(4)
C17 C 0.9363(4) 0.7032(4) 0.8146(4)
H12 H 0.96790 0.73770 0.85050
C18 C 0.8731(4) 0.6556(4) 0.8617(4)
C19 C 0.8753(5) 0.6433(4) 0.9682(4)
C20 C 0.9641(5) 0.6415(5) 1.0217(4)
H13 H 1.02080 0.65480 0.99240
C21 C 0.9668(7) 0.6194(5) 1.1198(5)
H14 H 1.02660 0.61710 1.15540
C22 C 0.8859(8) 0.6016(6) 1.1636(5)
H15 H 0.88910 0.58720 1.22910
C23 C 0.7965(7) 0.6048(6) 1.1106(4)
H16 H 0.73910 0.59340 1.14080
C24 C 0.7926(5) 0.6245(5) 1.0145(4)
H17 H 0.73300 0.62520 0.97970
C25 C 1.0331(4) 0.7460(4) 0.6777(4)
C26 C 1.0124(5) 0.7985(4) 0.5868(4)
H18 H 0.95080 0.80490 0.55130
C27 C 1.0834(6) 0.8414(5) 0.5489(5)
H19 H 1.06900 0.87660 0.48820
C28 C 1.1756(5) 0.8320(6) 0.6013(6)
H20 H 1.22200 0.86210 0.57620
C29 C 1.1984(5) 0.7781(6) 0.6901(6)
H21 H 1.26120 0.77040 0.72470
C30 C 1.1282(5) 0.7354(5) 0.7281(4)
H22 H 1.14440 0.69890 0.78830
C31 C 0.6392(4) 0.9174(4) 0.6858(4)
C32 C 0.6573(4) 0.9447(4) 0.5934(4)
H23 H 0.65020 1.01570 0.57850
C33 C 0.6853(4) 0.8729(4) 0.5214(3)
C34 C 0.6882(4) 0.9156(4) 0.4205(3)
C35 C 0.6260(4) 1.0268(4) 0.3904(4)
H24 H 0.58210 1.07750 0.43330
C36 C 0.6290(5) 1.0622(5) 0.2971(4)
H25 H 0.58750 1.13700 0.27770
C37 C 0.6919(5) 0.9895(5) 0.2332(4)
H26 H 0.69330 1.01440 0.17040
C38 C 0.7535(5) 0.8787(5) 0.2616(4)
H27 H 0.79740 0.82870 0.21820
C39 C 0.7500(4) 0.8423(4) 0.3541(4)
H28 H 0.79000 0.76710 0.37250
C40 C 0.5958(4) 1.0033(4) 0.7555(4)
C41 C 0.6168(6) 0.9715(5) 0.8504(4)
H29 H 0.66030 0.89700 0.86960
C42 C 0.5741(7) 1.0489(7) 0.9181(5)
H30 H 0.59050 1.02700 0.98210
C43 C 0.5067(6) 1.1589(7) 0.8887(6)
H31 H 0.47590 1.21150 0.93330
C44 C 0.4856(6) 1.1904(5) 0.7951(5)
H32 H 0.44120 1.26480 0.77590
C45 C 0.5290(5) 1.1135(5) 0.7281(4)
H33 H 0.51310 1.13620 0.66410
C46 C 0.7997(4) 0.5017(4) 0.4707(4)
H34 H 0.83980 0.45090 0.42660
C47 C 0.6747(4) 0.5544(4) 0.4673(3)
C48 C 0.5091(4) 0.6624(4) 0.5383(4)
H35 H 0.47120 0.70380 0.58870
C49 C 0.4452(5) 0.6554(5) 0.4652(5)
H36 H 0.36640 0.69230 0.46580
C50 C 0.5007(5) 0.5926(6) 0.3913(5)
H37 H 0.45980 0.58510 0.34160
C51 C 0.6161(5) 0.5416(5) 0.3919(4)
H38 H 0.65530 0.49890 0.34260
C52 C 0.9784(4) 0.4646(4) 0.5297(3)
H39 H 1.00240 0.39380 0.50260
H40 H 1.00960 0.45070 0.59370
O7 O 0.9478(7) 0.9335(6) 0.0082(5)
N1A N 1.1464(3) 0.4765(3) 0.4682(3)
N2A N 1.3784(3) 0.3866(3) 0.4594(3)
C46A C 1.2003(4) 0.4983(4) 0.5293(4)
H34A H 1.16020 0.54910 0.57340
C47A C 1.3253(4) 0.4456(4) 0.5327(3)
C48A C 1.4909(4) 0.3376(4) 0.4617(4)
H35A H 1.52880 0.29620 0.41130
C49A C 1.5548(5) 0.3446(5) 0.5348(5)
H36A H 1.63360 0.30770 0.53420
C50A C 1.4993(5) 0.4074(6) 0.6087(5)
H37A H 1.54020 0.41490 0.65840
C51A C 1.3839(5) 0.4584(5) 0.6081(4)
H38A H 1.34470 0.50110 0.65740
C52A C 1.0216(4) 0.5354(4) 0.4703(3)
H39A H 0.99760 0.60620 0.49740
H40A H 0.99040 0.54930 0.40630
Dy1A Dy 1.254013(17) 0.354371(16) 0.334871(14)
O1A O 1.4046(3) 0.3587(3) 0.2507(2)
O2A O 1.2027(3) 0.5413(3) 0.2968(2)
O3A O 1.0898(3) 0.3349(3) 0.3405(2)
O4A O 1.1861(3) 0.3803(3) 0.1794(2)
O5A O 1.3420(3) 0.1801(3) 0.2826(2)
O6A O 1.2936(3) 0.2281(3) 0.4665(2)
C1A C 1.4185(4) 0.4326(4) 0.2014(3)
C2A C 1.3471(4) 0.5461(4) 0.1999(3)
H1A H 1.36750 0.59320 0.16200
C3A C 1.2477(4) 0.5942(4) 0.2507(3)
C4A C 1.1865(4) 0.7188(4) 0.2545(3)
C5A C 1.0753(5) 0.7696(4) 0.2863(4)
H2A H 1.03910 0.72610 0.30360
C6A C 1.0176(5) 0.8832(5) 0.2926(5)
H3A H 0.94300 0.91560 0.31290
C7A C 1.0706(6) 0.9475(5) 0.2689(5)
H4A H 1.03200 1.02390 0.27310
C8A C 1.1817(6) 0.8995(5) 0.2385(6)
H5A H 1.21830 0.94340 0.22410
C9A C 1.2381(5) 0.7869(5) 0.2298(5)
H6A H 1.31170 0.75580 0.20700
C10A C 1.5211(4) 0.3920(4) 0.1406(3)
C11A C 1.5777(5) 0.4547(5) 0.1148(4)
H7A H 1.55140 0.52590 0.13500
C12A C 1.6733(5) 0.4118(6) 0.0587(4)
H8A H 1.71080 0.45430 0.04190
C13A C 1.7126(5) 0.3074(6) 0.0282(4)
H9A H 1.77700 0.27900 -0.00890
C14A C 1.6569(5) 0.2443(6) 0.0521(4)
H10A H 1.68240 0.17400 0.03020
C15A C 1.5616(5) 0.2867(5) 0.1099(4)
H11A H 1.52530 0.24340 0.12770
C16A C 1.0454(4) 0.2977(4) 0.2814(4)
C17A C 1.0637(4) 0.2968(4) 0.1854(4)
H12A H 1.03210 0.26230 0.14950
C18A C 1.1269(4) 0.3444(4) 0.1383(4)
C19A C 1.1247(5) 0.3567(4) 0.0318(4)
C20A C 1.0359(5) 0.3585(5) -0.0217(4)
H13A H 0.97920 0.34520 0.00760
C21A C 1.0332(7) 0.3806(5) -0.1198(5)
H14A H 0.97340 0.38290 -0.15540
C22A C 1.1141(8) 0.3984(6) -0.1636(5)
H15A H 1.11090 0.41280 -0.22910
C23A C 1.2035(7) 0.3952(6) -0.1106(4)
H16A H 1.26090 0.40660 -0.14080
C24A C 1.2074(5) 0.3755(5) -0.0145(4)
H17A H 1.26700 0.37480 0.02030
C25A C 0.9669(4) 0.2540(4) 0.3223(4)
C26A C 0.9876(5) 0.2015(4) 0.4132(4)
H18A H 1.04920 0.19510 0.44870
C27A C 0.9166(6) 0.1586(5) 0.4511(5)
H19A H 0.93100 0.12340 0.51180
C28A C 0.8244(5) 0.1680(6) 0.3987(6)
H20A H 0.77800 0.13790 0.42380
C29A C 0.8016(5) 0.2219(6) 0.3099(6)
H21A H 0.73880 0.22960 0.27530
C30A C 0.8718(5) 0.2646(5) 0.2719(4)
H22A H 0.85560 0.30110 0.21170
C31A C 1.3608(4) 0.0826(4) 0.3142(4)
C32A C 1.3427(4) 0.0553(4) 0.4066(4)
H23A H 1.34980 -0.01570 0.42150
C33A C 1.3147(4) 0.1271(4) 0.4786(3)
C34A C 1.3118(4) 0.0844(4) 0.5795(3)
C35A C 1.3740(4) -0.0268(4) 0.6096(4)
H24A H 1.41790 -0.07750 0.56670
C36A C 1.3710(5) -0.0622(5) 0.7029(4)
H25A H 1.41250 -0.13700 0.72230
C37A C 1.3081(5) 0.0105(5) 0.7668(4)
H26A H 1.30670 -0.01440 0.82960
C38A C 1.2465(5) 0.1213(5) 0.7384(4)
H27A H 1.20260 0.17130 0.78180
C39A C 1.2500(4) 0.1577(4) 0.6459(4)
H28A H 1.21000 0.23290 0.62750
C40A C 1.4042(4) -0.0033(4) 0.2445(4)
C41A C 1.3832(6) 0.0285(5) 0.1496(4)
H29A H 1.33970 0.10300 0.13040
C42A C 1.4259(7) -0.0489(7) 0.0819(5)
H30A H 1.40950 -0.02700 0.01790
C43A C 1.4933(6) -0.1589(7) 0.1113(6)
H31A H 1.52410 -0.21150 0.06670
C44A C 1.5144(6) -0.1904(5) 0.2049(5)
H32A H 1.55880 -0.26480 0.22410
C45A C 1.4710(5) -0.1135(5) 0.2719(4)
H33A H 1.48690 -0.13620 0.33590
#END

data_CSD_CIF_CUQREN
_audit_creation_date 2015-07-14
_audit_creation_method CSD-ConQuest-V1
_database_code_CSD CUQREN
_database_code_depnum_ccdc_archive 'CCDC 1062453'
_chemical_formula_sum 'C63 H43 Dy1 N4 O6'
_chemical_formula_moiety
;
C63 H43 Dy1 N4 O6
;
_journal_coden_Cambridge 1747
_journal_volume 2
_journal_year 2015
_journal_page_first 827
_journal_name_full 'Inorg.Chem.Front. '
loop_
_publ_author_name
"Yanping Dong"
"Pengfei Yan"
"Xiaoyan Zou"
"Guangming Li"
_chemical_name_systematic
;
tris(1,3-diphenylpropan-1,3-dionato)-(dipyrido[3,2-a:2',3'-c]phenazine)-dyspro
sium unknown solvate
;
_cell_volume  11079.146
_exptl_crystal_colour 'colorless'
_exptl_crystal_density_diffrn 1.336
_exptl_crystal_description 'block'
_diffrn_ambient_temperature 293
_refine_special_details
;
Disordered solvent molecules were not modelled and the disordered density was 
taken into account using the SQUEEZE/PLATON procedure.
;
#These two values have been output from a single CSD field.
_refine_ls_R_factor_gt 0.0779
_refine_ls_wR_factor_gt 0.0779
_symmetry_cell_setting monoclinic
_symmetry_space_group_name_H-M 'P 21/c'
_symmetry_Int_Tables_number 14
loop_
_symmetry_equiv_pos_site_id
_symmetry_equiv_pos_as_xyz
1 x,y,z
2 -x,1/2+y,1/2-z
3 -x,-y,-z
4 x,-1/2-y,-1/2+z
_cell_length_a 12.188(5)
_cell_length_b 22.423(5)
_cell_length_c 41.216(5)
_cell_angle_alpha 90
_cell_angle_beta 100.394(9)
_cell_angle_gamma 90
_cell_formula_units_Z 8
loop_
_atom_type_symbol
_atom_type_radius_bond
C 0.68
H 0.23
Dy 1.92
N 0.68
O 0.68
loop_
_atom_site_label
_atom_site_type_symbol
_atom_site_fract_x
_atom_site_fract_y
_atom_site_fract_z
Dy1 Dy 0.82808(4) 0.04931(2) 0.270828(11)
O1 O 0.7827(6) 0.0723(3) 0.32312(16)
O2 O 0.6400(6) 0.0681(3) 0.26542(17)
O3 O 0.8601(8) -0.0385(4) 0.29726(19)
O4 O 0.7387(7) -0.0237(4) 0.23550(18)
O5 O 1.0040(6) 0.0678(3) 0.30149(16)
O6 O 0.9581(7) 0.0315(4) 0.23661(17)
N1 N 0.8300(6) 0.1640(4) 0.27615(18)
N2 N 0.7598(7) 0.1105(4) 0.21818(18)
C1 C 0.6327(13) -0.1036(6) 0.2095(3)
C2 C 0.7127(9) -0.0779(5) 0.2384(3)
C3 C 0.7506(10) -0.1115(5) 0.2658(3)
H1 H 0.72690 -0.15090 0.26570
C4 C 0.8232(9) -0.0908(5) 0.2942(2)
C5 C 0.8611(8) -0.1305(5) 0.3235(3)
C6 C 0.9366(11) -0.1078(6) 0.3493(3)
H2 H 0.96410 -0.06930 0.34810
C7 C 0.4805(11) 0.1259(6) 0.2565(3)
C8 C 0.4250(14) 0.1770(8) 0.2621(4)
H3 H 0.44960 0.19850 0.28140
C9 C 0.5833(9) 0.1040(5) 0.2789(3)
C10 C 0.6114(10) 0.1216(5) 0.3114(3)
H4 H 0.56270 0.14670 0.31980
C11 C 0.7104(10) 0.1035(5) 0.3325(3)
C12 C 0.7309(10) 0.1220(5) 0.3683(3)
C13 C 0.7284(10) 0.0839(5) 0.1891(2)
H5 H 0.75460 0.04560 0.18630
C14 C 0.6582(10) 0.1105(5) 0.1625(2)
H6 H 0.63800 0.09010 0.14270
C15 C 0.6203(9) 0.1662(5) 0.1659(2)
H7 H 0.57420 0.18490 0.14840
C16 C 0.6515(8) 0.1960(4) 0.1965(2)
C17 C 0.7217(8) 0.1661(4) 0.2213(2)
C18 C 0.7620(9) 0.1956(5) 0.2529(2)
C19 C 0.7281(8) 0.2541(4) 0.2580(2)
C20 C 0.7701(10) 0.2809(5) 0.2883(3)
H8 H 0.74790 0.31920 0.29290
C21 C 0.8459(11) 0.2493(5) 0.3113(3)
H9 H 0.87970 0.26710 0.33090
C22 C 0.8696(9) 0.1916(5) 0.3045(2)
H10 H 0.91640 0.17020 0.32080
N3 N 0.6216(7) 0.3408(4) 0.2374(2)
C23 C 0.6149(8) 0.2564(4) 0.2017(2)
C24 C 0.6515(8) 0.2848(5) 0.2319(2)
N4 N 0.5405(7) 0.2818(4) 0.17740(19)
C25 C 0.5107(9) 0.3384(5) 0.1825(2)
C26 C 1.0225(15) -0.0197(7) 0.1843(3)
H11 H 0.94750 -0.01010 0.18260
C27 C 1.0993(12) -0.0096(5) 0.2130(3)
C28 C 1.0582(10) 0.0178(5) 0.2416(3)
C29 C 1.1314(9) 0.0261(5) 0.2709(3)
H12 H 1.20540 0.01480 0.27190
C30 C 1.1007(9) 0.0505(4) 0.2992(2)
C31 C 1.1865(8) 0.0545(4) 0.3303(2)
C32 C 1.1528(10) 0.0480(5) 0.3600(3)
H13 H 1.07700 0.04560 0.36050
C33 C 1.2278(11) 0.0448(6) 0.3889(3)
H14 H 1.20260 0.03980 0.40870
C34 C 1.377(1) 0.0570(6) 0.3593(4)
H15 H 1.45280 0.06030 0.35880
C35 C 1.3012(11) 0.0599(5) 0.3305(3)
H16 H 1.32610 0.06560 0.31070
C36 C 0.9724(12) -0.1436(8) 0.3778(3)
H17 H 1.02400 -0.12870 0.39530
C37 C 0.9298(12) -0.2007(8) 0.3790(4)
H18 H 0.95240 -0.22450 0.39750
C38 C 0.8215(12) -0.1874(7) 0.3258(3)
H19 H 0.77080 -0.20300 0.30830
C39 C 0.5519(9) 0.3679(5) 0.2124(3)
C40 C 0.5152(11) 0.4275(5) 0.2163(3)
H20 H 0.53840 0.44720 0.23630
C41 C 0.4476(12) 0.4554(6) 0.1917(4)
H21 H 0.42770 0.49490 0.19430
C42 C 0.4060(12) 0.4253(6) 0.1617(4)
H22 H 0.35800 0.44480 0.14500
C43 C 0.4363(10) 0.3685(6) 0.1575(3)
H23 H 0.40790 0.34880 0.13790
C44 C 1.3424(13) 0.0491(7) 0.3888(4)
H24 H 1.39380 0.04660 0.40840
C45 C 0.8545(16) -0.2216(7) 0.3531(4)
H25 H 0.82520 -0.25970 0.35400
C46 C 0.5850(17) -0.1578(8) 0.2095(4)
H26 H 0.60600 -0.18210 0.22790
C47 C 0.4405(13) 0.0939(7) 0.2288(4)
H27 H 0.47540 0.05840 0.22500
C48 C 1.0653(17) -0.0455(7) 0.1579(4)
H28 H 1.01770 -0.04990 0.13770
C49 C 1.1676(18) -0.0634(7) 0.1604(4)
H29 H 1.18850 -0.08230 0.14230
C50 C 0.8410(14) 0.1145(6) 0.3867(3)
H30 H 0.89540 0.09820 0.37610
C51 C 0.6514(13) 0.1461(7) 0.3837(4)
H31 H 0.57930 0.15280 0.37240
C52 C 0.4825(17) -0.1482(9) 0.1570(4)
H32 H 0.43820 -0.16460 0.13840
C53 C 1.2465(17) -0.0559(8) 0.1883(5)
H33 H 1.32060 -0.06730 0.18990
C54 C 0.682(2) 0.1605(10) 0.4175(5)
H34 H 0.62810 0.17610 0.42830
C55 C 0.783(2) 0.1532(9) 0.4344(4)
H35 H 0.79870 0.16300 0.45670
C56 C 1.2044(16) -0.0294(8) 0.2138(4)
H36 H 1.25390 -0.02490 0.23370
C57 C 0.5057(17) -0.1794(9) 0.1835(5)
H37 H 0.47040 -0.21570 0.18530
C58 C 0.8696(18) 0.1302(8) 0.4188(4)
H38 H 0.94230 0.12620 0.43020
C59 C 0.6012(19) -0.0722(8) 0.1819(4)
H39 H 0.63310 -0.03510 0.17970
C60 C 0.3491(17) 0.1128(11) 0.2058(6)
H40 H 0.32630 0.09210 0.18620
C61 C 0.2948(15) 0.1621(12) 0.2128(7)
H41 H 0.22890 0.17290 0.19900
C62 C 0.334(2) 0.1974(10) 0.2403(7)
H42 H 0.30070 0.23360 0.24370
C63 C 0.519(2) -0.095(1) 0.1557(5)
H43 H 0.49230 -0.07100 0.13770
Dy2 Dy 0.69583(4) 0.257267(19) 0.065754(11)
O7 O 0.8692(6) 0.2532(3) 0.05058(17)
O8 O 0.7428(6) 0.3524(3) 0.05119(17)
O9 O 0.5606(6) 0.2027(3) 0.08500(18)
O10 O 0.5418(6) 0.3199(3) 0.06718(18)
O11 O 0.7089(7) 0.1594(3) 0.04678(19)
O12 O 0.6043(6) 0.2539(3) 0.01244(17)
N5 N 0.7458(6) 0.3127(3) 0.12135(18)
N6 N 0.8255(6) 0.2032(3) 0.11422(19)
C64 C 0.4539(14) 0.2036(7) -0.0664(4)
H44 H 0.47970 0.16470 -0.06740
C65 C 1.0557(12) 0.2005(6) 0.0361(4)
H45 H 1.01320 0.18070 0.04930
C66 C 1.0186(10) 0.2962(6) 0.2571(3)
C67 C 1.0562(10) 0.2361(6) 0.2542(3)
N7 N 1.0219(8) 0.2041(4) 0.2260(2)
C68 C 0.9557(8) 0.2323(4) 0.2020(2)
C69 C 0.9180(8) 0.2912(4) 0.2047(2)
N8 N 0.9517(8) 0.3224(4) 0.2320(2)
C70 C 0.9254(8) 0.2010(4) 0.1706(2)
C71 C 0.9626(11) 0.1446(5) 0.1658(3)
H46 H 1.00590 0.12400 0.18300
C72 C 0.9354(12) 0.1191(5) 0.1354(3)
H47 H 0.96120 0.08120 0.13170
C73 C 0.8701(9) 0.1493(4) 0.1103(3)
H48 H 0.85590 0.13190 0.08950
C74 C 0.8523(8) 0.2287(4) 0.1442(2)
C75 C 0.8443(8) 0.3192(4) 0.1778(2)
C76 C 0.8133(8) 0.2880(4) 0.1479(2)
C77 C 0.8011(10) 0.3768(5) 0.1797(2)
H49 H 0.81860 0.39860 0.19910
C78 C 0.7339(9) 0.4005(4) 0.1532(3)
H50 H 0.70520 0.43870 0.15420
C79 C 0.7079(8) 0.3676(4) 0.1243(3)
H51 H 0.66180 0.38470 0.10630
C80 C 1.0240(8) 0.2565(4) 0.0248(2)
C81 C 0.9269(9) 0.2858(4) 0.0351(2)
C82 C 0.8159(8) 0.3756(4) 0.0373(2)
C83 C 0.9027(9) 0.3454(4) 0.0282(2)
H52 H 0.94900 0.36630 0.01660
C84 C 0.7995(9) 0.4408(4) 0.0298(2)
C85 C 0.6963(11) 0.4649(5) 0.0260(2)
H53 H 0.63630 0.44050 0.02820
C86 C 0.8863(10) 0.4798(5) 0.0277(3)
H54 H 0.95910 0.46550 0.03090
C87 C 0.8659(13) 0.5394(5) 0.0210(3)
H55 H 0.92490 0.56500 0.01970
C88 C 0.3086(14) 0.1518(8) 0.1079(5)
H56 H 0.28280 0.18750 0.11520
C89 C 0.3973(11) 0.1522(6) 0.0923(3)
C90 C 0.458(1) 0.2084(5) 0.0850(3)
C91 C 0.3960(9) 0.2600(5) 0.0784(3)
H57 H 0.31980 0.25840 0.07840
C92 C 0.4426(8) 0.3144(4) 0.0716(2)
C93 C 0.3754(8) 0.3703(5) 0.0694(2)
C94 C 0.2637(12) 0.3717(7) 0.0723(4)
H58 H 0.22560 0.33640 0.07450
C95 C 0.5606(10) 0.2146(5) -0.0074(3)
C96 C 0.4841(10) 0.2361(5) -0.0376(3)
C97 C 0.3880(15) 0.2274(9) -0.0929(4)
H59 H 0.37050 0.20520 -0.11220
C98 C 0.4395(10) 0.2936(6) -0.0370(3)
H60 H 0.45760 0.31630 -0.01790
C99 C 0.3724(12) 0.3168(7) -0.0628(4)
H61 H 0.34280 0.35480 -0.06160
C100 C 0.3465(15) 0.2835(10) -0.0919(4)
H62 H 0.30120 0.29970 -0.11040
C101 C 0.5757(11) 0.1537(5) -0.0022(3)
H63 H 0.53410 0.12770 -0.01710
C102 C 0.6504(11) 0.1296(5) 0.0244(3)
C103 C 0.4273(10) 0.4235(5) 0.0660(3)
H64 H 0.50160 0.42400 0.06360
C104 C 0.3691(13) 0.4765(6) 0.0663(3)
H65 H 0.40600 0.51230 0.06440
C105 C 0.7568(13) 0.5616(5) 0.0163(3)
H66 H 0.74220 0.60160 0.01140
C106 C 0.4409(13) 0.0983(6) 0.0845(3)
H67 H 0.50570 0.09780 0.07560
C107 C 1.0592(12) 0.3282(7) 0.2862(3)
H68 H 1.03950 0.36790 0.28820
C108 C 1.1268(15) 0.3006(10) 0.3111(4)
H69 H 1.15490 0.32240 0.32990
C109 C 1.1202(12) 0.2092(7) 0.2815(3)
H70 H 1.13880 0.16910 0.28080
C110 C 0.2101(13) 0.4252(9) 0.0720(4)
H71 H 0.13510 0.42580 0.07380
C111 C 0.2639(16) 0.4779(8) 0.0691(4)
H72 H 0.22650 0.51410 0.06920
C112 C 0.6771(13) 0.5251(5) 0.0191(3)
H73 H 0.60450 0.53950 0.01630
C113 C 1.1563(17) 0.2416(10) 0.3098(4)
H74 H 1.20030 0.22360 0.32800
C114 C 0.6618(14) 0.0617(5) 0.0278(3)
C115 C 1.2098(13) 0.2005(7) 0.0074(5)
H75 H 1.26690 0.18040 -0.00020
C116 C 1.0904(14) 0.2827(6) 0.0059(4)
H76 H 1.07130 0.32060 -0.00240
C117 C 1.1868(15) 0.2556(8) -0.0020(5)
H77 H 1.23310 0.27650 -0.01360
C118 C 0.2976(19) 0.0455(10) 0.1034(6)
H78 H 0.26200 0.00980 0.10640
C119 C 0.6414(17) 0.0237(6) 0.0021(4)
H79 H 0.61460 0.03850 -0.01890
C120 C 0.3889(19) 0.0446(7) 0.0899(5)
H80 H 0.41780 0.00850 0.08400
C121 C 0.6875(18) 0.0376(7) 0.0587(4)
H81 H 0.69960 0.06280 0.07690
C122 C 0.6958(17) -0.0239(7) 0.0636(6)
H82 H 0.70850 -0.03970 0.08480
C123 C 1.1513(15) 0.1720(7) 0.0282(5)
H83 H 1.17370 0.13480 0.03700
C124 C 0.2547(17) 0.0979(12) 0.1131(6)
H84 H 0.19150 0.09780 0.12280
C125 C 0.659(2) -0.0361(7) 0.0065(5)
H85 H 0.65340 -0.06060 -0.01200
C126 C 0.685(2) -0.0606(7) 0.0366(6)
H86 H 0.69550 -0.10150 0.03910
#END

data_CSD_CIF_CURDAW
_audit_creation_date 2015-07-14
_audit_creation_method CSD-ConQuest-V1
_database_code_CSD CURDAW
_database_code_depnum_ccdc_archive 'CCDC 1062450'
_chemical_formula_sum 'C55 H41 Dy1 N2 O6'
_chemical_formula_moiety
;
C55 H41 Dy1 N2 O6
;
_journal_coden_Cambridge 1747
_journal_volume 2
_journal_year 2015
_journal_page_first 827
_journal_name_full 'Inorg.Chem.Front. '
loop_
_publ_author_name
"Yanping Dong"
"Pengfei Yan"
"Xiaoyan Zou"
"Guangming Li"
_chemical_name_systematic
;
tris(3-oxo-1,3-diphenylprop-1-en-1-olato)-(2,2'-bipyridine)-dysprosium
;
_cell_volume   4584.581
_exptl_crystal_colour 'colorless'
_exptl_crystal_density_diffrn 1.432
_exptl_crystal_description 'block'
_diffrn_ambient_temperature 293
#These two values have been output from a single CSD field.
_refine_ls_R_factor_gt 0.0268
_refine_ls_wR_factor_gt 0.0268
_symmetry_cell_setting monoclinic
_symmetry_space_group_name_H-M 'P 21/c'
_symmetry_Int_Tables_number 14
loop_
_symmetry_equiv_pos_site_id
_symmetry_equiv_pos_as_xyz
1 x,y,z
2 -x,1/2+y,1/2-z
3 -x,-y,-z
4 x,-1/2-y,-1/2+z
_cell_length_a 13.3650(5)
_cell_length_b 22.5332(7)
_cell_length_c 16.1797(6)
_cell_angle_alpha 90
_cell_angle_beta 109.799(5)
_cell_angle_gamma 90
_cell_formula_units_Z 4
loop_
_atom_type_symbol
_atom_type_radius_bond
C 0.68
H 0.23
Dy 1.92
N 0.68
O 0.68
loop_
_atom_site_label
_atom_site_type_symbol
_atom_site_fract_x
_atom_site_fract_y
_atom_site_fract_z
C1 C 0.0860(3) 0.53198(17) 0.7972(2)
H1 H 0.05450 0.54210 0.73830
C2 C 0.0279(3) 0.50103(19) 0.8380(3)
H2 H -0.04210 0.49040 0.80710
C3 C 0.0731(4) 0.4859(2) 0.9243(3)
H3 H 0.03460 0.46410 0.95210
C4 C 0.1749(4) 0.5028(3) 0.9698(3)
H4 H 0.20510 0.49330 1.02910
C5 C 0.2332(3) 0.5339(2) 0.9285(2)
H5 H 0.30260 0.54510 0.96020
C6 C 0.1903(3) 0.54866(15) 0.8407(2)
C7 C 0.2479(2) 0.58203(13) 0.79078(19)
C8 C 0.3561(2) 0.59571(15) 0.82933(19)
H6 H 0.38920 0.58610 0.88820
C9 C 0.4174(2) 0.62259(13) 0.78556(19)
C10 C 0.5304(2) 0.63995(15) 0.8342(2)
C11 C 0.5901(3) 0.6159(2) 0.9146(2)
H7 H 0.56190 0.58570 0.93920
C12 C 0.6923(3) 0.6370(3) 0.9587(3)
H8 H 0.73200 0.62120 1.01300
C13 C 0.7342(4) 0.6807(3) 0.9225(4)
H9 H 0.80200 0.69500 0.95280
C14 C 0.6787(3) 0.7036(2) 0.8430(3)
H10 H 0.70900 0.73260 0.81790
C15 C 0.5759(3) 0.68370(17) 0.7989(2)
H11 H 0.53720 0.70010 0.74480
C16 C -0.1676(2) 0.63513(16) 0.4451(2)
H12 H -0.12980 0.66670 0.47830
C17 C -0.2772(3) 0.63783(17) 0.4107(3)
H13 H -0.31250 0.67140 0.42000
C18 C -0.3340(3) 0.59135(18) 0.3629(2)
H14 H -0.40780 0.59320 0.34010
C19 C -0.2819(3) 0.54192(17) 0.3486(2)
H15 H -0.32060 0.51030 0.31620
C20 C -0.1717(2) 0.53915(14) 0.38235(19)
H16 H -0.13680 0.50560 0.37250
C21 C -0.1132(2) 0.58596(14) 0.43063(18)
C22 C 0.0066(2) 0.58606(13) 0.46767(18)
C23 C 0.0648(2) 0.55002(14) 0.43100(19)
H17 H 0.02730 0.52650 0.38330
C24 C 0.1755(2) 0.54664(13) 0.46087(18)
C25 C 0.2291(2) 0.50510(14) 0.41707(19)
C26 C 0.1809(3) 0.45444(17) 0.3739(2)
H18 H 0.11310 0.44450 0.37340
C27 C 0.2312(4) 0.4181(2) 0.3314(3)
H19 H 0.19760 0.38410 0.30260
C28 C 0.3311(4) 0.4326(2) 0.3317(3)
H20 H 0.36400 0.40910 0.30130
C29 C 0.3820(3) 0.4810(2) 0.3764(3)
H21 H 0.45080 0.48960 0.37840
C30 C 0.3315(3) 0.51757(18) 0.4190(2)
H22 H 0.36660 0.55080 0.44920
C31 C -0.0948(3) 0.74815(19) 0.6483(2)
H23 H -0.08550 0.71200 0.62400
C32 C -0.1915(3) 0.7610(2) 0.6574(3)
H24 H -0.24720 0.73400 0.63810
C33 C -0.2052(4) 0.8137(3) 0.6948(3)
H25 H -0.27010 0.82220 0.70160
C34 C -0.1236(4) 0.8536(2) 0.7221(3)
H26 H -0.13330 0.88940 0.74700
C35 C -0.0263(4) 0.84084(18) 0.7128(3)
H27 H 0.02930 0.86790 0.73230
C36 C -0.0116(3) 0.78806(16) 0.6748(2)
C37 C 0.0927(3) 0.77147(16) 0.6640(2)
C38 C 0.1678(3) 0.81475(16) 0.6658(2)
H28 H 0.15070 0.85420 0.67120
C39 C 0.2671(3) 0.80192(16) 0.6599(2)
C40 C 0.3425(3) 0.85085(16) 0.6559(2)
C41 C 0.3349(3) 0.90844(18) 0.6827(3)
H29 H 0.28270 0.91830 0.70640
C42 C 0.4048(4) 0.9515(2) 0.6743(3)
H30 H 0.39860 0.99020 0.69200
C43 C 0.4820(4) 0.9381(2) 0.6408(3)
H31 H 0.52790 0.96750 0.63480
C44 C 0.4921(3) 0.8813(2) 0.6157(3)
H32 H 0.54560 0.87190 0.59320
C45 C 0.4231(3) 0.83770(18) 0.6236(3)
H33 H 0.43120 0.79900 0.60700
C46 C 0.0449(2) 0.75002(16) 0.4512(2)
H34 H 0.00230 0.73680 0.48250
C47 C 0.0042(3) 0.79235(17) 0.3870(2)
H35 H -0.06430 0.80690 0.37510
C48 C 0.0664(3) 0.81245(18) 0.3413(2)
H36 H 0.04100 0.84100 0.29780
C49 C 0.1667(3) 0.78982(16) 0.3607(2)
H37 H 0.21040 0.80320 0.33040
C50 C 0.2030(2) 0.74705(14) 0.42532(19)
C51 C 0.3100(2) 0.72039(14) 0.44726(19)
C52 C 0.3742(3) 0.7311(2) 0.3975(3)
H38 H 0.35080 0.75560 0.34850
C53 C 0.4726(3) 0.7052(2) 0.4210(3)
H39 H 0.51660 0.71210 0.38820
C54 C 0.5058(3) 0.66895(19) 0.4935(3)
H40 H 0.57270 0.65130 0.51120
C55 C 0.4373(2) 0.65965(15) 0.5389(2)
H41 H 0.45890 0.63460 0.58740
Dy1 Dy 0.216906(10) 0.658621(6) 0.603947(8)
N1 N 0.14204(18) 0.72705(11) 0.47068(15)
N2 N 0.34114(18) 0.68464(11) 0.51724(15)
O1 O 0.19325(15) 0.59769(10) 0.71324(12)
O2 O 0.38219(15) 0.63471(11) 0.70418(13)
O3 O 0.04757(14) 0.62136(9) 0.53111(13)
O4 O 0.23584(14) 0.57825(9) 0.52269(12)
O5 O 0.10395(17) 0.71659(10) 0.65146(14)
O6 O 0.29989(16) 0.74954(10) 0.65590(15)
#END

data_CSD_CIF_CURDEA
_audit_creation_date 2015-07-14
_audit_creation_method CSD-ConQuest-V1
_database_code_CSD CURDEA
_database_code_depnum_ccdc_archive 'CCDC 1062451'
_chemical_formula_sum 'C57 H41 Dy1 N2 O6'
_chemical_formula_moiety
;
C57 H41 Dy1 N2 O6
;
_journal_coden_Cambridge 1747
_journal_volume 2
_journal_year 2015
_journal_page_first 827
_journal_name_full 'Inorg.Chem.Front. '
loop_
_publ_author_name
"Yanping Dong"
"Pengfei Yan"
"Xiaoyan Zou"
"Guangming Li"
_chemical_name_systematic
;
tris(3-oxo-1,3-diphenylprop-1-en-1-olato)-(1,10-phenanthroline)-dysprosium
;
_cell_volume  11595.768
_exptl_crystal_colour 'colorless'
_exptl_crystal_density_diffrn 1.16
_exptl_crystal_description 'block'
_diffrn_ambient_temperature 293
#These two values have been output from a single CSD field.
_refine_ls_R_factor_gt 0.0577
_refine_ls_wR_factor_gt 0.0577
_symmetry_cell_setting monoclinic
_symmetry_space_group_name_H-M 'P 21/c'
_symmetry_Int_Tables_number 14
loop_
_symmetry_equiv_pos_site_id
_symmetry_equiv_pos_as_xyz
1 x,y,z
2 -x,1/2+y,1/2-z
3 -x,-y,-z
4 x,-1/2-y,-1/2+z
_cell_length_a 30.1199(9)
_cell_length_b 19.6717(7)
_cell_length_c 19.7248(5)
_cell_angle_alpha 90
_cell_angle_beta 97.169(3)
_cell_angle_gamma 90
_cell_formula_units_Z 8
loop_
_atom_type_symbol
_atom_type_radius_bond
C 0.68
H 0.23
Dy 1.92
N 0.68
O 0.68
loop_
_atom_site_label
_atom_site_type_symbol
_atom_site_fract_x
_atom_site_fract_y
_atom_site_fract_z
Dy1 Dy 0.065517(10) 0.179619(15) 0.371551(15)
C1 C 0.1153(3) 0.2299(4) 0.6651(3)
H1 H 0.08930 0.25360 0.67120
C2 C 0.1460(3) 0.2175(5) 0.7203(4)
H2 H 0.14150 0.23420 0.76300
C3 C 0.1841(4) 0.1801(6) 0.7128(5)
H3 H 0.20450 0.17030 0.75090
C4 C 0.1916(4) 0.1574(6) 0.6493(5)
H4 H 0.21710 0.13260 0.64350
C5 C 0.1596(3) 0.1730(5) 0.5932(4)
H5 H 0.16450 0.15870 0.54980
C6 C 0.1214(2) 0.2085(4) 0.6004(3)
C7 C 0.0880(2) 0.2162(3) 0.5381(3)
C8 C 0.0496(2) 0.2557(3) 0.5412(3)
H6 H 0.04780 0.28240 0.57980
C9 C 0.0141(2) 0.2567(3) 0.4894(3)
C10 C -0.0275(2) 0.2967(4) 0.4973(4)
C11 C -0.0393(3) 0.3166(4) 0.5588(4)
H7 H -0.02070 0.30540 0.59840
C12 C -0.0781(3) 0.3528(5) 0.5639(5)
H8 H -0.08650 0.36320 0.60650
C13 C -0.1035(3) 0.3727(5) 0.5063(6)
H9 H -0.12860 0.39960 0.50950
C14 C -0.0933(4) 0.3544(7) 0.4435(5)
H10 H -0.11160 0.36750 0.40420
C15 C -0.0549(3) 0.3154(5) 0.4392(5)
H11 H -0.04780 0.30210 0.39660
C16 C 0.1702(3) 0.3712(5) 0.4020(5)
H12 H 0.17460 0.32510 0.41070
C17 C 0.2055(3) 0.4166(6) 0.4169(6)
H13 H 0.23350 0.40060 0.43510
C18 C 0.1994(4) 0.4834(6) 0.4052(5)
H14 H 0.22330 0.51330 0.41440
C19 C 0.1601(4) 0.5063(5) 0.3812(5)
H15 H 0.15590 0.55280 0.37490
C20 C 0.1244(3) 0.4621(4) 0.3647(4)
H16 H 0.09670 0.47940 0.34650
C21 C 0.1293(2) 0.3944(4) 0.3747(3)
C22 C 0.0929(3) 0.3437(4) 0.3567(3)
C23 C 0.0521(3) 0.3634(3) 0.3195(4)
H17 H 0.04640 0.40950 0.31280
C24 C 0.0197(2) 0.3170(3) 0.2922(3)
C25 C -0.0229(2) 0.3438(4) 0.2537(4)
C26 C -0.0416(3) 0.4050(4) 0.2679(5)
H18 H -0.02780 0.43190 0.30300
C27 C -0.0803(3) 0.4267(5) 0.2309(6)
H19 H -0.09180 0.46900 0.24060
C28 C -0.1028(3) 0.3880(6) 0.1799(5)
H20 H -0.12930 0.40340 0.15550
C29 C -0.0860(3) 0.3284(5) 0.1664(5)
H21 H -0.10140 0.30110 0.13290
C30 C -0.0447(3) 0.3047(4) 0.2019(4)
H22 H -0.03260 0.26350 0.19010
C31 C 0.0486(3) 0.0699(4) 0.1398(4)
H23 H 0.02720 0.06960 0.16990
C32 C 0.0361(3) 0.0539(5) 0.0726(4)
H24 H 0.00640 0.04430 0.05720
C33 C 0.0672(4) 0.0521(5) 0.0290(5)
H25 H 0.05880 0.03910 -0.01610
C34 C 0.1112(4) 0.0690(6) 0.0496(4)
H26 H 0.13220 0.06860 0.01890
C35 C 0.1235(3) 0.0867(5) 0.1181(4)
H27 H 0.15290 0.09890 0.13320
C36 C 0.0915(3) 0.0862(3) 0.1635(3)
C37 C 0.1047(2) 0.1049(3) 0.2373(3)
C38 C 0.1475(2) 0.0945(3) 0.2694(3)
H28 H 0.16770 0.07220 0.24510
C39 C 0.1626(2) 0.1153(3) 0.3360(3)
C40 C 0.2097(2) 0.1001(4) 0.3653(3)
C41 C 0.2337(3) 0.0495(5) 0.3438(4)
H29 H 0.22140 0.02240 0.30760
C42 C 0.2758(4) 0.0369(6) 0.3736(6)
H30 H 0.29210 0.00090 0.35850
C43 C 0.2945(3) 0.0782(8) 0.4269(6)
H31 H 0.32370 0.07020 0.44660
C44 C 0.2708(4) 0.1299(7) 0.4507(6)
H32 H 0.28280 0.15710 0.48700
C45 C 0.2285(3) 0.1396(5) 0.4186(5)
H33 H 0.21160 0.17480 0.43360
C46 C -0.0398(3) 0.1284(4) 0.2962(4)
H34 H -0.03820 0.17180 0.27800
C47 C -0.0780(3) 0.0911(6) 0.2778(5)
H35 H -0.10150 0.10930 0.24820
C48 C -0.0813(3) 0.0282(6) 0.3028(6)
H36 H -0.10720 0.00310 0.29060
C49 C -0.0472(4) 0.0008(5) 0.3458(5)
C50 C -0.0487(5) -0.0642(6) 0.3787(8)
H37 H -0.07480 -0.08980 0.37260
C51 C -0.0132(6) -0.0878(5) 0.4176(8)
H38 H -0.01390 -0.13240 0.43300
C52 C 0.0274(4) -0.0472(4) 0.4377(5)
C53 C 0.0666(6) -0.0677(5) 0.4825(6)
H39 H 0.06710 -0.11040 0.50270
C54 C 0.1021(5) -0.0275(5) 0.4960(6)
H40 H 0.12680 -0.04020 0.52650
C55 C 0.1004(3) 0.0348(4) 0.4618(4)
H41 H 0.12550 0.06260 0.46940
C56 C 0.0296(3) 0.0179(4) 0.4078(4)
C57 C -0.0071(3) 0.0430(4) 0.3627(4)
N1 N -0.00548(19) 0.1063(3) 0.3381(3)
N2 N 0.0666(2) 0.0570(3) 0.4201(3)
O1 O 0.09569(15) 0.1835(2) 0.4857(2)
O2 O 0.01248(15) 0.2235(3) 0.4337(2)
O3 O 0.10121(14) 0.2834(2) 0.3751(2)
O4 O 0.02372(15) 0.2531(2) 0.2945(2)
O5 O 0.07336(14) 0.1328(2) 0.2662(2)
O6 O 0.13903(16) 0.1474(3) 0.3724(2)
C58 C 0.2507(3) 0.8409(6) 0.4430(4)
H42 H 0.26500 0.87360 0.41940
C59 C 0.2070(5) 0.8548(9) 0.4525(7)
H43 H 0.19300 0.89500 0.43730
C60 C 0.1873(5) 0.8105(13) 0.4826(8)
H44 H 0.15830 0.81920 0.49150
C61 C 0.2073(5) 0.7473(11) 0.5040(7)
H45 H 0.19080 0.71360 0.52230
C62 C 0.2556(3) 0.7362(7) 0.4964(5)
H46 H 0.27120 0.69770 0.51310
C63 C 0.2749(3) 0.7863(5) 0.4633(4)
C64 C 0.3218(3) 0.7828(5) 0.4473(4)
C65 C 0.3505(3) 0.7332(5) 0.4784(4)
H47 H 0.33930 0.70380 0.50890
C66 C 0.3959(3) 0.7243(4) 0.4668(4)
C67 C 0.4238(3) 0.6708(4) 0.5042(4)
C68 C 0.4108(4) 0.6373(5) 0.5600(5)
H48 H 0.38360 0.64710 0.57560
C69 C 0.4405(6) 0.5866(6) 0.5937(7)
H49 H 0.43270 0.56340 0.63150
C70 C 0.4791(5) 0.5734(6) 0.5702(8)
H50 H 0.49760 0.53950 0.59080
C71 C 0.4919(4) 0.6085(6) 0.5171(7)
H51 H 0.51960 0.60000 0.50260
C72 C 0.4647(3) 0.6553(5) 0.4853(5)
H52 H 0.47410 0.67850 0.44860
C73 C 0.3384(3) 0.9765(4) 0.5555(4)
H53 H 0.32550 0.94240 0.52690
C74 C 0.3129(3) 1.0107(6) 0.5986(5)
H54 H 0.28320 0.99790 0.59890
C75 C 0.3286(4) 1.0592(7) 0.6381(6)
H55 H 0.31060 1.08300 0.66500
C76 C 0.3727(5) 1.0745(7) 0.6388(6)
H56 H 0.38520 1.10710 0.66970
C77 C 0.4005(3) 1.0438(5) 0.5958(4)
H57 H 0.42990 1.05780 0.59510
C78 C 0.3824(2) 0.9928(4) 0.5551(3)
C79 C 0.4088(2) 0.9557(3) 0.5080(3)
C80 C 0.45385(19) 0.9401(3) 0.5286(3)
H58 H 0.46720 0.95760 0.57000
C81 C 0.4797(2) 0.9000(3) 0.4910(3)
C82 C 0.5249(2) 0.8747(4) 0.5227(3)
C83 C 0.5504(2) 0.9088(4) 0.5758(3)
H59 H 0.54000 0.94920 0.59250
C84 C 0.5912(3) 0.8825(5) 0.6037(4)
H60 H 0.60900 0.90620 0.63780
C85 C 0.6054(3) 0.8216(5) 0.5809(5)
H61 H 0.63240 0.80320 0.60070
C86 C 0.5802(3) 0.7873(5) 0.5292(5)
H62 H 0.59010 0.74600 0.51390
C87 C 0.5399(3) 0.8143(4) 0.4999(4)
H63 H 0.52300 0.79130 0.46450
C88 C 0.4964(4) 1.0229(5) 0.2630(4)
H64 H 0.50270 0.98780 0.29440
C89 C 0.5329(4) 1.0617(8) 0.2428(6)
H65 H 0.56210 1.05210 0.26130
C90 C 0.5244(6) 1.1118(8) 0.1972(7)
H66 H 0.54780 1.13650 0.18270
C91 C 0.4799(6) 1.1269(6) 0.1713(7)
H67 H 0.47350 1.16240 0.14050
C92 C 0.4449(4) 1.0872(5) 0.1927(5)
H68 H 0.41550 1.09680 0.17520
C93 C 0.4532(3) 1.0351(4) 0.2383(4)
C94 C 0.4165(3) 0.9907(4) 0.2609(3)
C95 C 0.3748(3) 0.9900(4) 0.2268(4)
H69 H 0.36950 1.01780 0.18850
C96 C 0.3393(2) 0.9516(4) 0.2438(4)
C97 C 0.2940(3) 0.9540(4) 0.1999(4)
C98 C 0.2854(5) 0.9866(8) 0.1382(7)
H70 H 0.30740 1.01270 0.12150
C99 C 0.2440(6) 0.9802(12) 0.1017(10)
H71 H 0.24050 1.00000 0.05850
C100 C 0.2108(5) 0.9519(8) 0.1183(9)
H72 H 0.18290 0.95310 0.09210
C101 C 0.2185(3) 0.9196(6) 0.1768(7)
H73 H 0.19480 0.89500 0.19050
C102 C 0.2587(3) 0.9185(5) 0.2204(5)
H74 H 0.26150 0.89480 0.26150
C103 C 0.4972(3) 0.8276(4) 0.2980(4)
H75 H 0.50810 0.85440 0.33530
C104 C 0.5274(3) 0.8078(5) 0.2540(5)
H76 H 0.55700 0.82230 0.26130
C105 C 0.5134(3) 0.7679(5) 0.2015(5)
H77 H 0.53360 0.75330 0.17250
C106 C 0.4687(3) 0.7477(4) 0.1895(4)
C107 C 0.4502(4) 0.7062(5) 0.1345(5)
H78 H 0.46880 0.69080 0.10350
C108 C 0.4066(4) 0.6880(5) 0.1251(5)
H79 H 0.39630 0.65970 0.08880
C109 C 0.3762(3) 0.7110(4) 0.1695(4)
C110 C 0.3300(4) 0.7004(5) 0.1613(5)
H80 H 0.31680 0.67610 0.12360
C111 C 0.3054(3) 0.7238(5) 0.2049(5)
H81 H 0.27480 0.71540 0.19900
C112 C 0.3242(3) 0.7618(4) 0.2611(4)
H82 H 0.30560 0.77710 0.29210
C113 C 0.3930(3) 0.7534(4) 0.2259(3)
C114 C 0.4400(2) 0.7711(3) 0.2364(4)
Dy2 Dy 0.398398(11) 0.861448(18) 0.366050(15)
N3 N 0.45496(18) 0.8116(3) 0.2911(3)
N4 N 0.36641(19) 0.7766(3) 0.2720(3)
O7 O 0.33285(17) 0.8253(3) 0.4051(3)
O8 O 0.41373(17) 0.7604(3) 0.4256(3)
O9 O 0.38694(15) 0.9360(3) 0.4527(2)
O10 O 0.46680(15) 0.8789(3) 0.4309(2)
O11 O 0.42892(16) 0.9521(3) 0.3109(2)
O12 O 0.34160(15) 0.9139(3) 0.2951(2)
#END

data_CSD_CIF_CURDIE
_audit_creation_date 2015-07-14
_audit_creation_method CSD-ConQuest-V1
_database_code_CSD CURDIE
_database_code_depnum_ccdc_archive 'CCDC 1062452'
_chemical_formula_sum 'C62.5 H45 Dy1 N4 O6'
_chemical_formula_moiety
;
C59 H41 Dy1 N4 O6,0.5(C7 H8)
;
_journal_coden_Cambridge 1747
_journal_volume 2
_journal_year 2015
_journal_page_first 827
_journal_name_full 'Inorg.Chem.Front. '
loop_
_publ_author_name
"Yanping Dong"
"Pengfei Yan"
"Xiaoyan Zou"
"Guangming Li"
_chemical_name_systematic
;
tris(3-oxo-1,3-diphenylprop-1-en-1-olato)-(pyrazino[2,3-f][1,10]phenanthroline
)-dysprosium toluene solvate
;
_cell_volume  10978.077
_exptl_crystal_colour 'colorless'
_exptl_crystal_density_diffrn 1.344
_exptl_crystal_description 'block'
_diffrn_ambient_temperature 293
#These two values have been output from a single CSD field.
_refine_ls_R_factor_gt 0.042
_refine_ls_wR_factor_gt 0.042
_symmetry_cell_setting monoclinic
_symmetry_space_group_name_H-M 'P 21/c'
_symmetry_Int_Tables_number 14
loop_
_symmetry_equiv_pos_site_id
_symmetry_equiv_pos_as_xyz
1 x,y,z
2 -x,1/2+y,1/2-z
3 -x,-y,-z
4 x,-1/2-y,-1/2+z
_cell_length_a 25.036(5)
_cell_length_b 19.728(5)
_cell_length_c 25.887(4)
_cell_angle_alpha 90
_cell_angle_beta 120.839(14)
_cell_angle_gamma 90
_cell_formula_units_Z 8
loop_
_atom_type_symbol
_atom_type_radius_bond
C 0.68
H 0.23
Dy 1.92
N 0.68
O 0.68
loop_
_atom_site_label
_atom_site_type_symbol
_atom_site_fract_x
_atom_site_fract_y
_atom_site_fract_z
C1 C -0.3076(3) -0.3240(3) -0.4099(3)
C2 C -0.3062(3) -0.3613(4) -0.3644(3)
H1 H -0.34320 -0.37430 -0.36710
C3 C -0.2505(4) -0.3794(5) -0.3150(4)
H2 H -0.25010 -0.40360 -0.28400
C4 C -0.1956(4) -0.3622(5) -0.3110(4)
H3 H -0.15780 -0.37460 -0.27750
C5 C -0.1971(4) -0.3265(5) -0.3569(4)
H4 H -0.16010 -0.31630 -0.35550
C6 C -0.2522(3) -0.3058(4) -0.4046(3)
H5 H -0.25230 -0.27900 -0.43420
C7 C -0.3667(3) -0.3028(3) -0.4646(2)
C8 C -0.4220(3) -0.3373(3) -0.4829(3)
H6 H -0.42080 -0.37410 -0.45990
C9 C -0.5357(2) -0.3613(2) -0.5489(2)
C10 C -0.5359(3) -0.4154(3) -0.5145(3)
H7 H -0.49980 -0.42570 -0.47840
C11 C -0.5884(3) -0.4541(3) -0.5328(3)
H8 H -0.58730 -0.49020 -0.50920
C12 C -0.6419(3) -0.4394(4) -0.5854(3)
H9 H -0.67720 -0.46600 -0.59800
C13 C -0.6438(3) -0.3854(4) -0.6197(3)
H10 H -0.68080 -0.37450 -0.65470
C14 C -0.5907(3) -0.3472(3) -0.6020(3)
H11 H -0.59200 -0.31160 -0.62620
C15 C -0.4794(2) -0.3203(3) -0.5335(2)
C16 C -0.6137(3) -0.2598(3) -0.7943(2)
H12 H -0.58810 -0.22320 -0.78920
C17 C -0.6743(3) -0.2604(4) -0.8416(3)
H13 H -0.68920 -0.22460 -0.86880
C18 C -0.7132(3) -0.3142(4) -0.8488(3)
H14 H -0.75420 -0.31460 -0.88060
C19 C -0.6908(3) -0.3663(4) -0.8088(3)
H15 H -0.71690 -0.40210 -0.81290
C20 C -0.6292(3) -0.3668(3) -0.7617(3)
H16 H -0.61410 -0.40340 -0.73530
C21 C -0.5908(3) -0.3136(3) -0.7542(2)
C22 C -0.5247(3) -0.3118(3) -0.7031(2)
C23 C -0.4919(3) -0.3730(3) -0.6813(3)
H17 H -0.51310 -0.41340 -0.69740
C24 C -0.4297(3) -0.3763(3) -0.6374(3)
C25 C -0.3962(3) -0.4425(3) -0.6244(3)
C26 C -0.3461(4) -0.4536(4) -0.5674(4)
H18 H -0.33480 -0.42050 -0.53800
C27 C -0.3120(4) -0.5138(5) -0.5533(5)
H19 H -0.27850 -0.52090 -0.51460
C28 C -0.3279(5) -0.5613(4) -0.5961(6)
H20 H -0.30520 -0.60140 -0.58660
C29 C -0.3772(5) -0.5516(4) -0.6539(5)
H21 H -0.38730 -0.58440 -0.68330
C30 C -0.4117(4) -0.4922(3) -0.6678(4)
H22 H -0.44540 -0.48560 -0.70650
C31 C -0.4509(3) -0.1098(3) -0.7814(3)
H23 H -0.47980 -0.13520 -0.77720
C32 C -0.4702(4) -0.0731(4) -0.8335(3)
H24 H -0.51160 -0.07410 -0.86440
C33 C -0.4272(4) -0.0350(3) -0.8389(3)
H25 H -0.43980 -0.01010 -0.87380
C34 C -0.3671(4) -0.0334(3) -0.7942(3)
H26 H -0.33870 -0.00690 -0.79830
C35 C -0.3475(3) -0.0707(3) -0.7430(3)
H27 H -0.30570 -0.07010 -0.71290
C36 C -0.3895(3) -0.1094(3) -0.7353(3)
C37 C -0.3705(3) -0.1484(3) -0.6789(2)
C38 C -0.3104(3) -0.1764(3) -0.6475(3)
H28 H -0.28530 -0.17260 -0.66410
C39 C -0.2866(3) -0.2098(3) -0.5924(3)
C40 C -0.2233(3) -0.2416(4) -0.5630(3)
C41 C -0.2141(4) -0.2991(4) -0.5303(3)
H29 H -0.24630 -0.31630 -0.52620
C42 C -0.1578(5) -0.3320(6) -0.5032(5)
H30 H -0.15190 -0.37120 -0.48090
C43 C -0.1114(5) -0.3071(8) -0.5094(6)
H31 H -0.07290 -0.32870 -0.49000
C44 C -0.1191(5) -0.2523(7) -0.5424(5)
H32 H -0.08660 -0.23640 -0.54650
C45 C -0.1761(4) -0.2189(5) -0.5708(4)
H33 H -0.18220 -0.18140 -0.59510
C46 C -0.2992(3) -0.0514(3) -0.4440(3)
H34 H -0.25800 -0.05090 -0.41270
C47 C -0.3367(3) 0.0030(3) -0.4533(3)
H35 H -0.32150 0.04110 -0.42880
C48 C -0.3980(3) 0.0003(3) -0.5000(2)
C49 C -0.4189(3) -0.0585(2) -0.5353(2)
C50 C -0.4831(3) -0.0640(2) -0.5838(2)
C51 C -0.5247(3) -0.0109(3) -0.5955(2)
C52 C -0.5848(3) -0.0180(3) -0.6421(3)
H36 H -0.61360 0.01670 -0.65140
C53 C -0.6019(3) -0.0765(3) -0.6746(3)
H37 H -0.64250 -0.08200 -0.70640
C54 C -0.5587(3) -0.1279(3) -0.6601(3)
H38 H -0.57140 -0.16780 -0.68240
C55 C -0.4412(3) 0.0555(3) -0.5128(3)
C56 C -0.5023(3) 0.0500(3) -0.5585(3)
C57 C -0.4601(4) 0.1603(3) -0.4906(4)
H39 H -0.44690 0.19980 -0.46780
C58 C -0.5218(4) 0.1557(3) -0.5362(4)
H40 H -0.54830 0.19190 -0.54290
C59 C -0.3228(3) -0.1073(3) -0.4812(3)
H41 H -0.29640 -0.14370 -0.47430
Dy1 Dy -0.419436(12) -0.217640(12) -0.592399(11)
N1 N -0.3816(2) -0.1115(2) -0.5265(2)
N2 N -0.5000(2) -0.1223(2) -0.61576(19)
N3 N -0.4195(3) 0.1120(2) -0.4778(2)
N4 N -0.5444(3) 0.1002(2) -0.5713(2)
O1 O -0.48621(17) -0.27102(18) -0.56730(16)
O2 O -0.36293(17) -0.25274(19) -0.49294(17)
O3 O -0.39727(19) -0.3273(2) -0.60559(19)
O4 O -0.50168(18) -0.25364(18) -0.68364(16)
O5 O -0.41080(18) -0.15366(19) -0.66353(17)
O6 O -0.31544(18) -0.2160(2) -0.56511(17)
C60 C -0.7375(4) 0.0598(6) -0.7391(5)
H42 H -0.74440 0.03290 -0.71360
C61 C -0.7374(4) 0.0307(4) -0.7880(6)
H43 H -0.74430 -0.01560 -0.79510
C62 C -0.7270(4) 0.0708(7) -0.8261(4)
H44 H -0.72700 0.05140 -0.85880
C63 C -0.7167(4) 0.1400(7) -0.8154(5)
H45 H -0.70980 0.16680 -0.84090
C64 C -0.7168(4) 0.1690(4) -0.7665(6)
H46 H -0.70990 0.21530 -0.75930
C65 C -0.7272(4) 0.1289(6) -0.7284(4)
C66 C -0.7233(13) 0.1695(12) -0.6815(9)
H47 H -0.73050 0.14180 -0.65510
H48 H -0.75410 0.20460 -0.69830
H49 H -0.68270 0.18950 -0.65920
C67 C 0.0543(6) -0.7141(6) -0.3509(4)
C68 C -0.0044(5) -0.6905(9) -0.3665(4)
H50 H -0.03580 -0.72100 -0.37350
C69 C -0.0163(5) -0.6212(9) -0.3717(4)
H51 H -0.05560 -0.60540 -0.38210
C70 C 0.0305(8) -0.5756(7) -0.3612(5)
H52 H 0.02260 -0.52930 -0.36470
C71 C 0.0892(6) -0.5993(8) -0.3456(4)
H53 H 0.12050 -0.56870 -0.33870
C72 C 0.1011(4) -0.6685(8) -0.3405(4)
H54 H 0.14040 -0.68430 -0.33010
C73 C 0.0624(11) -0.7822(8) -0.3448(9)
H55 H 0.10430 -0.79320 -0.33390
H56 H 0.03380 -0.80390 -0.38220
H57 H 0.05490 -0.79780 -0.31400
C74 C -0.0056(3) -0.4334(4) -0.2228(4)
H58 H 0.00850 -0.43990 -0.18220
C75 C -0.0488(4) -0.4774(5) -0.2643(5)
H59 H -0.06380 -0.51290 -0.25160
C76 C -0.0693(4) -0.4697(6) -0.3229(5)
H60 H -0.09880 -0.49940 -0.35090
C77 C -0.0468(5) -0.4181(6) -0.3413(4)
H61 H -0.06090 -0.41310 -0.38200
C78 C -0.0036(4) -0.3733(4) -0.3008(4)
H62 H 0.01170 -0.33870 -0.31410
C79 C 0.0173(3) -0.3796(3) -0.2398(3)
C80 C 0.0656(3) -0.3348(3) -0.1929(3)
C81 C 0.0881(3) -0.2795(3) -0.2089(3)
H63 H 0.07110 -0.27110 -0.24970
C82 C 0.1337(3) -0.2363(3) -0.1690(3)
C83 C 0.1523(3) -0.1772(4) -0.1924(3)
C84 C 0.1527(4) -0.1810(5) -0.2452(4)
H64 H 0.13980 -0.22080 -0.26760
C85 C 0.1720(5) -0.1268(7) -0.2662(6)
H65 H 0.17260 -0.13080 -0.30170
C86 C 0.1898(5) -0.0680(6) -0.2344(6)
H66 H 0.20180 -0.03120 -0.24860
C87 C 0.1903(4) -0.0629(4) -0.1815(5)
H67 H 0.20260 -0.02240 -0.16000
C88 C 0.1725(3) -0.1181(4) -0.1591(4)
H68 H 0.17420 -0.11480 -0.12240
C89 C 0.2577(3) -0.3306(4) -0.1928(4)
H69 H 0.28420 -0.31800 -0.15300
C90 C 0.2660(4) -0.3037(5) -0.2397(5)
H70 H 0.29800 -0.27310 -0.23000
C91 C 0.2286(6) -0.3219(5) -0.2965(5)
H71 H 0.23530 -0.30460 -0.32610
C92 C 0.1815(6) -0.3647(5) -0.3116(4)
H72 H 0.15510 -0.37600 -0.35180
C93 C 0.1718(4) -0.3922(4) -0.2679(3)
H73 H 0.13920 -0.42240 -0.27900
C94 C 0.2103(3) -0.3751(3) -0.2077(3)
C95 C 0.1983(3) -0.4006(3) -0.1605(2)
C96 C 0.1648(3) -0.4600(3) -0.1695(2)
H74 H 0.15020 -0.48300 -0.20560
C97 C 0.1514(2) -0.4873(3) -0.1271(2)
C98 C 0.1238(3) -0.5562(3) -0.1362(3)
C99 C 0.1284(5) -0.5907(4) -0.0883(4)
H75 H 0.14850 -0.57050 -0.05050
C100 C 0.1037(6) -0.6552(5) -0.0950(5)
H76 H 0.10730 -0.67730 -0.06160
C101 C 0.0753(5) -0.6860(5) -0.1474(5)
H77 H 0.05900 -0.72930 -0.15150
C102 C 0.0707(6) -0.6536(5) -0.1938(5)
H78 H 0.05120 -0.67500 -0.23110
C103 C 0.0938(5) -0.5890(5) -0.1894(4)
H79 H 0.08850 -0.56760 -0.22370
C104 C 0.1573(4) -0.1232(4) 0.0265(4)
H80 H 0.19180 -0.13580 0.02430
C105 C 0.1468(5) -0.0554(4) 0.0322(5)
H81 H 0.17430 -0.02260 0.03390
C106 C 0.0957(6) -0.0364(5) 0.0354(5)
H82 H 0.08890 0.00890 0.04010
C107 C 0.0569(5) -0.0832(6) 0.0317(5)
H83 H 0.02190 -0.07060 0.03310
C108 C 0.0666(4) -0.1498(4) 0.0258(4)
H84 H 0.03770 -0.18170 0.02280
C109 C 0.1175(3) -0.1710(4) 0.0242(3)
C110 C 0.1295(3) -0.2436(3) 0.0167(3)
C111 C 0.1041(3) -0.2958(4) 0.0335(3)
H85 H 0.07980 -0.28410 0.04980
C112 C 0.1129(3) -0.3644(4) 0.0275(3)
C113 C 0.0910(3) -0.4174(3) 0.0541(3)
C114 C 0.0507(4) -0.4021(3) 0.0745(4)
H86 H 0.03660 -0.35790 0.07180
C115 C 0.0317(4) -0.4528(5) 0.0987(4)
H87 H 0.00470 -0.44260 0.11240
C116 C 0.0529(5) -0.5188(4) 0.1027(4)
H88 H 0.04010 -0.55270 0.11890
C117 C 0.0932(6) -0.5341(3) 0.0823(6)
H89 H 0.10860 -0.57770 0.08510
C118 C 0.2929(4) -0.2176(3) -0.0175(3)
H90 H 0.25770 -0.19640 -0.04810
C119 C 0.3485(4) -0.1834(4) 0.0088(4)
H91 H 0.35030 -0.14010 -0.00440
C120 C 0.4010(4) -0.2126(3) 0.0540(3)
H92 H 0.43880 -0.18970 0.07220
C121 C 0.3965(3) -0.2773(3) 0.0722(3)
C122 C 0.3386(3) -0.3096(3) 0.0433(2)
C123 C 0.3326(3) -0.3772(3) 0.0612(2)
C124 C 0.3846(3) -0.4107(3) 0.1074(2)
C125 C 0.3761(3) -0.4761(3) 0.1226(3)
H93 H 0.40940 -0.50030 0.15260
C126 C 0.3179(3) -0.5038(3) 0.0926(3)
H94 H 0.31130 -0.54750 0.10170
C127 C 0.2689(3) -0.4667(3) 0.0486(3)
H95 H 0.22950 -0.48630 0.02930
C128 C 0.4494(3) -0.3113(3) 0.1210(3)
C129 C 0.4439(3) -0.3773(3) 0.1370(2)
C130 C 0.5466(4) -0.3767(5) 0.2081(3)
H96 H 0.58210 -0.39800 0.23830
C131 C 0.5513(4) -0.3103(5) 0.1927(4)
H97 H 0.58950 -0.28840 0.21410
C132 C 0.1093(8) -0.4812(5) 0.0576(8)
H98 H 0.13490 -0.49130 0.04230
Dy2 Dy 0.180976(13) -0.341351(13) -0.053757(12)
N5 N 0.2748(2) -0.4044(2) 0.03226(19)
N6 N 0.2870(2) -0.2801(2) -0.0009(2)
N7 N 0.5042(3) -0.2771(3) 0.1494(3)
N8 N 0.4937(3) -0.4105(3) 0.1813(2)
O7 O 0.1409(2) -0.3857(2) 0.0023(2)
O8 O 0.1657(2) -0.2539(2) -0.0027(2)
O9 O 0.1617(2) -0.2424(2) -0.1126(2)
O10 O 0.16400(19) -0.45780(19) -0.07947(16)
O11 O 0.22156(18) -0.36523(19) -0.11334(17)
O12 O 0.0842(2) -0.3502(2) -0.1387(2)
#END

data_CSD_CIF_EDODUY
_audit_creation_date 2013-03-18
_audit_creation_method CSD-ConQuest-V1
_database_code_CSD EDODUY
_database_code_depnum_ccdc_archive 'CCDC 873085'
_chemical_formula_sum 'C73 H67 Dy1 N4 O8'
_chemical_formula_moiety
;
C73 H63 Dy1 N4 O6,2(H2 O1)
;
_journal_coden_Cambridge 1220
_journal_volume 18
_journal_year 2012
_journal_page_first 14632
_journal_name_full 'Chem.-Eur.J. '
loop_
_publ_author_name
"Xi-Li Li"
"Chun-Lai Chen"
"Yu-Liang Gao"
"Cai-Ming Liu"
"Xiang-Li Feng"
"Yang-Hai Gui"
"Shao-Ming Fang"
_chemical_name_systematic
;
((R)-2,5-bis(4,5-pinene-2-pyridyl)pyrazine)-tris(1,3-diphenylprop-1-en-1-olato
-3-onato)-dysprosium dihydrate
;
_cell_volume   6544.564
_exptl_crystal_density_diffrn 1.31
_diffrn_ambient_temperature 291
#These two values have been output from a single CSD field.
_refine_ls_R_factor_gt 0.0478
_refine_ls_wR_factor_gt 0.0478
loop_
_citation_database_id_CSD
_citation_special_details
EDOFAG "is a stereoisomer of this entry"
_symmetry_cell_setting orthorhombic
_symmetry_space_group_name_H-M 'P 21 21 21'
_symmetry_Int_Tables_number 19
loop_
_symmetry_equiv_pos_site_id
_symmetry_equiv_pos_as_xyz
1 x,y,z
2 1/2-x,-y,1/2+z
3 -x,1/2+y,1/2-z
4 1/2+x,1/2-y,-z
_cell_length_a 17.0829(8)
_cell_length_b 17.5067(7)
_cell_length_c 21.8834(8)
_cell_angle_alpha 90
_cell_angle_beta 90
_cell_angle_gamma 90
_cell_formula_units_Z 4
loop_
_atom_type_symbol
_atom_type_radius_bond
C 0.68
H 0.23
Dy 1.92
N 0.68
O 0.68
loop_
_atom_site_label
_atom_site_type_symbol
_atom_site_fract_x
_atom_site_fract_y
_atom_site_fract_z
C1 C 0.0280(3) 0.2368(3) 1.0776(2)
C2 C -0.0122(3) 0.2502(2) 1.1378(2)
C3 C -0.0881(3) 0.2258(3) 1.1501(2)
H1 H -0.11640 0.20050 1.12000
C4 C -0.1223(3) 0.2390(3) 1.2072(2)
H2 H -0.17300 0.22230 1.21500
C5 C -0.0805(3) 0.2770(3) 1.2521(2)
H3 H -0.10280 0.28720 1.28990
C6 C -0.0020(3) 0.3002(3) 1.23860(18)
H4 H 0.02730 0.32340 1.26920
C7 C 0.0310(3) 0.2895(2) 1.1832(2)
H5 H 0.08110 0.30760 1.17500
C8 C -0.0082(3) 0.1785(3) 1.0396(2)
H6 H -0.05470 0.15460 1.05070
C9 C 0.0329(3) 0.1591(2) 0.9822(3)
C10 C 0.0033(3) 0.0889(3) 0.9502(2)
C11 C -0.0721(3) 0.0644(3) 0.9573(2)
H7 H -0.10740 0.09190 0.98110
C12 C -0.0949(3) -0.0027(3) 0.9280(2)
H8 H -0.14550 -0.02120 0.93330
C13 C -0.0418(3) -0.0428(3) 0.8904(2)
H9 H -0.05790 -0.08790 0.87180
C14 C 0.0343(3) -0.0164(3) 0.8805(2)
H10 H 0.06910 -0.04200 0.85510
C15 C 0.0559(3) 0.0531(3) 0.9122(2)
H11 H 0.10560 0.07360 0.90680
C16 C 0.0527(3) 0.4157(3) 0.8964(2)
C17 C -0.0042(3) 0.4818(2) 0.9005(2)
C18 C -0.0358(3) 0.5129(3) 0.8467(2)
H12 H -0.02580 0.49200 0.80840
C19 C -0.0837(3) 0.5782(3) 0.8544(2)
H13 H -0.10700 0.59960 0.82000
C20 C -0.0976(3) 0.6114(3) 0.9101(2)
H14 H -0.12560 0.65680 0.91300
C21 C -0.0682(3) 0.5750(3) 0.9630(2)
H15 H -0.08150 0.59380 1.00140
C22 C -0.0198(3) 0.5117(3) 0.9585(2)
H16 H 0.00180 0.48970 0.99330
C23 C 0.0883(3) 0.3991(2) 0.84149(18)
H17 H 0.07950 0.43120 0.80830
C24 C 0.1374(3) 0.3354(2) 0.8338(2)
C25 C 0.1660(3) 0.3151(2) 0.7707(2)
C26 C 0.1786(3) 0.3691(3) 0.72521(19)
H18 H 0.16690 0.42010 0.73290
C27 C 0.2080(3) 0.3483(3) 0.6686(2)
H19 H 0.21650 0.38580 0.63920
C28 C 0.2251(3) 0.2730(3) 0.6548(2)
H20 H 0.24570 0.25970 0.61690
C29 C 0.2103(3) 0.2164(3) 0.69992(19)
H21 H 0.22110 0.16540 0.69170
C30 C 0.1797(3) 0.2374(3) 0.7563(2)
H22 H 0.16800 0.19990 0.78500
C31 C 0.1711(3) 0.4849(2) 1.0251(2)
C32 C 0.1322(3) 0.5439(3) 1.06214(19)
C33 C 0.1428(3) 0.6222(2) 1.0536(2)
H23 H 0.18000 0.63920 1.02570
C34 C 0.0992(3) 0.6751(3) 1.0857(2)
H24 H 0.10780 0.72710 1.08000
C35 C 0.0406(3) 0.6494(3) 1.1281(2)
H25 H 0.00960 0.68450 1.14890
C36 C 0.0309(3) 0.5730(3) 1.1373(2)
H26 H -0.00470 0.55620 1.16650
C37 C 0.0731(3) 0.5203(3) 1.1041(2)
H27 H 0.06290 0.46860 1.10920
C38 C 0.2149(3) 0.5088(2) 0.9727(2)
H28 H 0.21620 0.56040 0.96250
C39 C 0.2547(3) 0.4577(3) 0.9374(2)
C40 C 0.3001(3) 0.4886(3) 0.8830(2)
C41 C 0.3199(3) 0.5662(3) 0.8796(2)
H29 H 0.30970 0.60000 0.91150
C42 C 0.3563(3) 0.5900(3) 0.8248(2)
H30 H 0.37110 0.64100 0.82160
C43 C 0.3711(3) 0.5435(3) 0.7768(2)
H31 H 0.39770 0.56190 0.74280
C44 C 0.3467(3) 0.4697(3) 0.7785(2)
H32 H 0.35400 0.43770 0.74500
C45 C 0.3103(3) 0.4427(3) 0.8317(2)
H33 H 0.29250 0.39250 0.83280
C46 C 0.3273(3) 0.1947(3) 0.99381(19)
C47 C 0.3883(3) 0.1441(2) 0.9727(2)
H34 H 0.43470 0.14140 0.99490
C48 C 0.3133(3) 0.1082(2) 0.89094(19)
C49 C 0.2553(3) 0.1588(3) 0.9094(2)
H35 H 0.20940 0.16200 0.88680
C50 C 0.3326(3) 0.2361(2) 1.0502(2)
C51 C 0.3978(3) 0.2335(3) 1.0868(2)
H36 H 0.44220 0.20700 1.07440
C52 C 0.3966(3) 0.2713(3) 1.1430(2)
C53 C 0.3296(3) 0.3123(3) 1.1605(2)
C54 C 0.2696(3) 0.3141(3) 1.1186(2)
H37 H 0.22490 0.34170 1.12870
C55 C 0.3310(4) 0.3522(3) 1.2215(2)
H38 H 0.28420 0.38100 1.23320
C56 C 0.4116(3) 0.3948(3) 1.2252(2)
H39 H 0.42990 0.41460 1.18640
H40 H 0.41400 0.43340 1.25690
C57 C 0.4476(3) 0.3196(3) 1.2430(2)
H41 H 0.48990 0.32350 1.27310
C58 C 0.4676(3) 0.2729(3) 1.18737(19)
H42 H 0.48090 0.22120 1.19950
H43 H 0.51270 0.29490 1.16690
C59 C 0.3672(3) 0.2986(3) 1.27026(18)
C60 C 0.3577(3) 0.3281(3) 1.3356(2)
H44 H 0.36570 0.38240 1.33620
H45 H 0.39550 0.30380 1.36160
H46 H 0.30590 0.31660 1.34990
C61 C 0.3411(3) 0.2117(2) 1.27033(18)
H47 H 0.34250 0.19230 1.31140
H48 H 0.37620 0.18260 1.24520
H49 H 0.28890 0.20760 1.25450
C62 C 0.3025(3) 0.0615(2) 0.8357(2)
C63 C 0.3685(3) 0.0383(2) 0.80165(19)
H50 H 0.41880 0.05060 0.81480
C64 C 0.3573(3) -0.0032(3) 0.74790(19)
C65 C 0.2793(3) -0.0193(3) 0.7311(2)
C66 C 0.2183(3) 0.0028(3) 0.7675(2)
H51 H 0.16780 -0.01200 0.75710
C67 C 0.4226(3) -0.0246(3) 0.7059(2)
H52 H 0.46080 -0.05520 0.72770
H53 H 0.44850 0.02110 0.69110
C68 C 0.3889(3) -0.0715(3) 0.6502(2)
H54 H 0.42790 -0.09100 0.62130
C69 C 0.3295(3) -0.1312(3) 0.6749(2)
H55 H 0.34120 -0.14970 0.71570
H56 H 0.31880 -0.17290 0.64700
C70 C 0.2679(3) -0.0651(2) 0.67287(19)
H57 H 0.21410 -0.07860 0.66160
C71 C 0.3209(3) -0.0277(3) 0.6220(2)
C72 C 0.2988(3) -0.0593(3) 0.5583(2)
H58 H 0.33710 -0.09640 0.54580
H59 H 0.29760 -0.01820 0.52930
H60 H 0.24820 -0.08300 0.56020
C73 C 0.3214(3) 0.0616(3) 0.6171(2)
H61 H 0.34060 0.08300 0.65460
H62 H 0.26910 0.07960 0.60970
H63 H 0.35470 0.07690 0.58400
N1 N 0.2636(2) 0.2033(2) 0.95921(17)
N2 N 0.3808(2) 0.1001(2) 0.92157(16)
N3 N 0.2297(2) 0.0466(2) 0.81925(18)
N4 N 0.2714(2) 0.27783(19) 1.06250(18)
O1 O 0.0856(2) 0.27740(18) 1.06689(15)
O2 O 0.09164(17) 0.19254(19) 0.96172(12)
O3 O 0.0614(2) 0.37866(18) 0.94703(16)
O4 O 0.1577(2) 0.28927(14) 0.87501(13)
O5 O 0.1622(2) 0.41020(15) 1.03983(12)
O6 O 0.2576(2) 0.38450(18) 0.94219(15)
O7 O 0.4837(6) 0.6392(5) 0.9470(4)
H64 H 0.50240 0.62650 0.91250
H65 H 0.46440 0.68390 0.94460
O8 O 0.2457(5) 0.8853(4) 0.9351(4)
H66 H 0.21100 0.87360 0.90890
H67 H 0.22440 0.89040 0.97000
O9 O 0.2535(5) 0.1976(5) 0.5071(3)
H68 H 0.21520 0.20070 0.48230
H69 H 0.29620 0.19700 0.48720
O10 O 0.3352(5) 0.8275(4) 0.8860(3)
H70 H 0.38420 0.82550 0.89270
H71 H 0.32270 0.79320 0.86030
O11 O 0.0026(6) 0.7816(5) 0.9371(4)
H72 H -0.03730 0.80840 0.92850
H73 H 0.04230 0.81050 0.94120
Dy1 Dy 0.162593(14) 0.304344(12) 0.982896(10)
#END

data_CSD_CIF_EDOFAG
_audit_creation_date 2013-03-18
_audit_creation_method CSD-ConQuest-V1
_database_code_CSD EDOFAG
_database_code_depnum_ccdc_archive 'CCDC 873086'
_chemical_formula_sum 'C73 H67 Dy1 N4 O8'
_chemical_formula_moiety
;
C73 H63 Dy1 N4 O6,2(H2 O1)
;
_journal_coden_Cambridge 1220
_journal_volume 18
_journal_year 2012
_journal_page_first 14632
_journal_name_full 'Chem.-Eur.J. '
loop_
_publ_author_name
"Xi-Li Li"
"Chun-Lai Chen"
"Yu-Liang Gao"
"Cai-Ming Liu"
"Xiang-Li Feng"
"Yang-Hai Gui"
"Shao-Ming Fang"
_chemical_name_systematic
;
((S)-2,5-bis(4,5-pinene-2-pyridyl)pyrazine)-tris(1,3-diphenylprop-1-en-1-olato
-3-onato)-dysprosium dihydrate
;
_cell_volume   6809.252
_exptl_crystal_colour 'yellow'
_exptl_crystal_density_diffrn 1.259
_exptl_crystal_description 'block'
_diffrn_ambient_temperature 291
_refine_special_details
;
Water molecules are disordered.

;
#These two values have been output from a single CSD field.
_refine_ls_R_factor_gt 0.0388
_refine_ls_wR_factor_gt 0.0388
loop_
_citation_database_id_CSD
_citation_special_details
EDODUY "is a stereoisomer of this entry"
_symmetry_cell_setting orthorhombic
_symmetry_space_group_name_H-M 'P 21 21 21'
_symmetry_Int_Tables_number 19
loop_
_symmetry_equiv_pos_site_id
_symmetry_equiv_pos_as_xyz
1 x,y,z
2 1/2-x,-y,1/2+z
3 -x,1/2+y,1/2-z
4 1/2+x,1/2-y,-z
_cell_length_a 17.1884(7)
_cell_length_b 18.2813(9)
_cell_length_c 21.6699(9)
_cell_angle_alpha 90
_cell_angle_beta 90
_cell_angle_gamma 90
_cell_formula_units_Z 4
loop_
_atom_type_symbol
_atom_type_radius_bond
C 0.68
H 0.23
Dy 1.92
N 0.68
O 0.68
loop_
_atom_site_label
_atom_site_type_symbol
_atom_site_fract_x
_atom_site_fract_y
_atom_site_fract_z
C1 C 0.9759(4) 0.7664(4) -0.0807(3)
C2 C 1.0109(5) 0.7529(5) -0.1420(3)
C3 C 1.0857(5) 0.7755(5) -0.1564(4)
H1 H 1.11520 0.80050 -0.12730
C4 C 1.1168(5) 0.7609(5) -0.2144(4)
H2 H 1.16640 0.77770 -0.22410
C5 C 1.0760(5) 0.7230(5) -0.2563(4)
H3 H 1.09750 0.71200 -0.29460
C6 C 1.0043(5) 0.7016(6) -0.2422(4)
H4 H 0.97500 0.67720 -0.27180
C7 C 0.9720(5) 0.7144(5) -0.1849(4)
H5 H 0.92280 0.69620 -0.17580
C8 C 1.0038(5) 0.8221(4) -0.0436(4)
H6 H 1.04760 0.84740 -0.05690
C9 C 0.9701(4) 0.8432(4) 0.0130(4)
C10 C 0.9958(5) 0.9112(5) 0.0439(4)
C11 C 1.0710(5) 0.9386(5) 0.0357(4)
H7 H 1.10630 0.91430 0.01040
C12 C 1.0920(6) 1.0019(5) 0.0657(4)
H8 H 1.14210 1.02030 0.06100
C13 C 1.0395(6) 1.0382(5) 0.1025(5)
H9 H 1.05340 1.08230 0.12090
C14 C 0.9669(6) 1.0096(5) 0.1124(4)
H10 H 0.93210 1.03280 0.13870
C15 C 0.9462(5) 0.9456(5) 0.0825(4)
H11 H 0.89700 0.92580 0.08920
C16 C 0.9545(5) 0.5948(4) 0.1079(4)
C17 C 1.0039(5) 0.5291(5) 0.1051(4)
C18 C 1.0335(5) 0.4929(5) 0.1560(4)
H12 H 1.02460 0.51160 0.19530
C19 C 1.0756(6) 0.4303(6) 0.1492(5)
H13 H 1.09350 0.40530 0.18380
C20 C 1.0909(6) 0.4051(5) 0.0926(5)
H14 H 1.11910 0.36200 0.08840
C21 C 1.0665(6) 0.4406(5) 0.0409(5)
H15 H 1.07980 0.42350 0.00190
C22 C 1.0218(5) 0.5023(5) 0.0475(4)
H16 H 1.00330 0.52630 0.01260
C23 C 0.9185(4) 0.6139(4) 0.1639(4)
H17 H 0.92620 0.58340 0.19770
C24 C 0.8721(4) 0.6757(4) 0.1716(3)
C25 C 0.8439(5) 0.6962(5) 0.2347(3)
C26 C 0.8304(5) 0.6451(5) 0.2793(4)
H18 H 0.84090 0.59600 0.27180
C27 C 0.8009(6) 0.6667(6) 0.3361(4)
H19 H 0.79300 0.63210 0.36690
C28 C 0.7835(6) 0.7381(6) 0.3469(4)
H20 H 0.76310 0.75220 0.38480
C29 C 0.7957(5) 0.7885(6) 0.3026(4)
H21 H 0.78310 0.83720 0.30990
C30 C 0.8267(5) 0.7684(5) 0.2471(4)
H22 H 0.83620 0.80380 0.21720
C31 C 0.8324(4) 0.5271(4) -0.0227(4)
C32 C 0.8707(5) 0.4716(5) -0.0605(4)
C33 C 0.8560(6) 0.3989(5) -0.0578(5)
H23 H 0.81830 0.38190 -0.03050
C34 C 0.8954(6) 0.3485(5) -0.0947(5)
H24 H 0.88290 0.29910 -0.09240
C35 C 0.9515(6) 0.3713(6) -0.1336(5)
H25 H 0.97720 0.33810 -0.15890
C36 C 0.9696(6) 0.4411(6) -0.1354(5)
H26 H 1.01050 0.45660 -0.16020
C37 C 0.9287(6) 0.4917(5) -0.1008(4)
H27 H 0.94080 0.54100 -0.10490
C38 C 0.7863(5) 0.5075(4) 0.0267(4)
H28 H 0.78040 0.45770 0.03420
C39 C 0.7492(5) 0.5531(5) 0.0648(4)
C40 C 0.7037(5) 0.5230(5) 0.1176(4)
C41 C 0.6702(6) 0.4600(5) 0.1164(5)
H29 H 0.67360 0.43210 0.08060
C42 C 0.6277(6) 0.4308(6) 0.1679(5)
H30 H 0.60150 0.38660 0.16410
C43 C 0.6258(6) 0.4678(6) 0.2220(5)
H31 H 0.60110 0.44840 0.25640
C44 C 0.6615(6) 0.5348(5) 0.2244(4)
H32 H 0.66110 0.56190 0.26070
C45 C 0.6979(5) 0.5617(5) 0.1726(4)
H33 H 0.71980 0.60820 0.17460
C46 C 0.6754(3) 0.8022(4) 0.0103(3)
C47 C 0.6174(4) 0.8485(4) 0.0289(4)
H34 H 0.57160 0.85020 0.00600
C48 C 0.6907(5) 0.8865(4) 0.1101(4)
C49 C 0.7478(4) 0.8388(4) 0.0913(3)
H35 H 0.79350 0.83640 0.11420
C50 C 0.6720(4) 0.7592(4) -0.0476(3)
C51 C 0.6088(5) 0.7580(4) -0.0856(3)
H36 H 0.56360 0.78230 -0.07390
C52 C 0.6110(5) 0.7212(5) -0.1406(4)
C53 C 0.6783(4) 0.6852(5) -0.1567(3)
C54 C 0.7393(4) 0.6859(5) -0.1155(3)
H37 H 0.78430 0.66060 -0.12590
C55 C 0.6781(5) 0.6435(5) -0.2171(4)
H38 H 0.72530 0.61600 -0.22730
C56 C 0.6018(5) 0.6027(6) -0.2212(4)
H39 H 0.60110 0.56460 -0.25230
H40 H 0.58300 0.58450 -0.18190
C57 C 0.5644(5) 0.6728(5) -0.2413(4)
H41 H 0.52280 0.66720 -0.27190
C58 C 0.5436(5) 0.7185(5) -0.1864(4)
H42 H 0.49810 0.69800 -0.16640
H43 H 0.53090 0.76770 -0.19980
C59 C 0.6439(6) 0.6926(6) -0.2682(4)
C60 C 0.6571(8) 0.6593(7) -0.3333(4)
H44 H 0.64390 0.60830 -0.33270
H45 H 0.71070 0.66480 -0.34480
H46 H 0.62480 0.68420 -0.36280
C61 C 0.6681(7) 0.7703(6) -0.2682(4)
H47 H 0.63200 0.79840 -0.29230
H48 H 0.71920 0.77440 -0.28570
H49 H 0.66880 0.78830 -0.22660
C62 C 0.6988(5) 0.9339(4) 0.1650(4)
C63 C 0.6364(5) 0.9562(5) 0.2000(4)
H50 H 0.58640 0.94220 0.18860
C64 C 0.6467(6) 0.9984(5) 0.2510(4)
C65 C 0.7223(5) 1.0185(5) 0.2680(4)
C66 C 0.7805(5) 0.9921(5) 0.2322(4)
H51 H 0.83110 1.00420 0.24340
C67 C 0.5834(5) 1.0214(6) 0.2936(4)
H52 H 0.55780 0.97830 0.31000
H53 H 0.54500 1.04940 0.27080
C68 C 0.6145(6) 1.0680(6) 0.3474(5)
H54 H 0.57510 1.08770 0.37550
C69 C 0.6722(6) 1.1228(5) 0.3222(4)
H55 H 0.68320 1.16320 0.34990
H56 H 0.66010 1.14020 0.28100
C70 C 0.7333(6) 1.0612(5) 0.3239(4)
H57 H 0.78680 1.07560 0.33370
C71 C 0.6836(5) 1.0301(6) 0.3782(5)
C72 C 0.7041(6) 1.0629(6) 0.4405(5)
H58 H 0.70680 1.11520 0.43700
H59 H 0.75350 1.04440 0.45390
H60 H 0.66480 1.05000 0.47010
C73 C 0.6818(6) 0.9474(5) 0.3854(5)
H61 H 0.66670 0.92540 0.34700
H62 H 0.64510 0.93430 0.41680
H63 H 0.73260 0.93020 0.39680
N1 N 0.7410(3) 0.7967(4) 0.0431(2)
N2 N 0.6238(3) 0.8914(4) 0.0788(3)
N3 N 0.7715(4) 0.9499(4) 0.1817(3)
N4 N 0.7373(3) 0.7212(3) -0.0609(3)
O1 O 0.9192(3) 0.7254(3) -0.0659(2)
O2 O 0.9128(3) 0.8094(3) 0.03700(19)
O3 O 0.9458(3) 0.6308(3) 0.0578(2)
O4 O 0.8520(3) 0.7177(2) 0.12839(18)
O5 O 0.8447(3) 0.5929(2) -0.03788(18)
O6 O 0.7525(3) 0.6233(3) 0.0627(3)
O7 O 0.590(2) 0.3006(18) 0.0176(15)
H64 H 0.57160 0.31340 0.05210
H65 H 0.60970 0.25600 0.02000
O8 O 0.7428(19) 0.8749(17) 0.5623(14)
H66 H 0.70810 0.86330 0.58850
H67 H 0.72150 0.88010 0.52740
O9? O 0.7615(14) 0.7909(14) 0.5324(11)
H68? H 0.79980 0.78780 0.55720
H69? H 0.72810 0.83020 0.52440
O10? O 0.8088(19) 0.8324(19) 0.5873(14)
H70? H 0.85770 0.83040 0.58060
H71? H 0.79620 0.79810 0.61300
O11? O 0.502(2) 0.2991(18) -0.0025(14)
H72? H 0.54230 0.32590 -0.01100
H73? H 0.46270 0.32800 0.00160
Dy1 Dy 0.84543(2) 0.700893(19) 0.019980(16)
#END

data_CSD_CIF_EDOFEK
_audit_creation_date 2013-03-18
_audit_creation_method CSD-ConQuest-V1
_database_code_CSD EDOFEK
_database_code_depnum_ccdc_archive 'CCDC 873087'
_chemical_formula_sum 'C118 H100 Dy2 N4 O14'
_chemical_formula_moiety
;
C118 H96 Dy2 N4 O12,2(H2 O1)
;
_journal_coden_Cambridge 1220
_journal_volume 18
_journal_year 2012
_journal_page_first 14632
_journal_name_full 'Chem.-Eur.J. '
loop_
_publ_author_name
"Xi-Li Li"
"Chun-Lai Chen"
"Yu-Liang Gao"
"Cai-Ming Liu"
"Xiang-Li Feng"
"Yang-Hai Gui"
"Shao-Ming Fang"
_chemical_name_systematic
;
(\m~2~-(R)-2,5-bis(4,5-pinene-2-pyridyl)pyrazine)-hexakis(1,3-diphenylprop-1-e
n-1-olato-3-onato)-di-dysprosium dihydrate
;
_cell_volume   5054.095
_exptl_crystal_density_diffrn 1.395
_diffrn_ambient_temperature 291
#These two values have been output from a single CSD field.
_refine_ls_R_factor_gt 0.0545
_refine_ls_wR_factor_gt 0.0545
loop_
_citation_database_id_CSD
_citation_special_details
EDOFIO "is a stereoisomer of this entry"
_symmetry_cell_setting monoclinic
_symmetry_space_group_name_H-M 'P 21'
_symmetry_Int_Tables_number 4
loop_
_symmetry_equiv_pos_site_id
_symmetry_equiv_pos_as_xyz
1 x,y,z
2 -x,1/2+y,-z
_cell_length_a 13.8528(4)
_cell_length_b 20.3168(5)
_cell_length_c 18.4305(4)
_cell_angle_alpha 90
_cell_angle_beta 103.006(3)
_cell_angle_gamma 90
_cell_formula_units_Z 2
loop_
_atom_type_symbol
_atom_type_radius_bond
C 0.68
H 0.23
Dy 1.92
N 0.68
O 0.68
loop_
_atom_site_label
_atom_site_type_symbol
_atom_site_fract_x
_atom_site_fract_y
_atom_site_fract_z
C1 C 0.2270(5) 0.5503(3) 0.2375(4)
H1 H 0.18630 0.57120 0.26420
C2 C 0.1914(6) 0.4938(3) 0.1962(4)
H2 H 0.12700 0.47940 0.19370
C3 C 0.2534(5) 0.4587(5) 0.1581(5)
H3 H 0.23330 0.42040 0.13130
C4 C 0.3465(6) 0.4862(4) 0.1642(4)
H4 H 0.39020 0.46290 0.14210
C5 C 0.3804(6) 0.5428(3) 0.1985(4)
H5 H 0.44160 0.55970 0.19490
C6 C 0.3211(6) 0.5764(4) 0.2403(4)
C7 C 0.3549(5) 0.6409(3) 0.2770(3)
C8 C 0.4300(5) 0.6795(4) 0.2577(4)
H6 H 0.46540 0.66070 0.22570
C9 C 0.4542(5) 0.7397(3) 0.2810(3)
C10 C 0.5332(5) 0.7805(4) 0.2599(4)
C11 C 0.6110(6) 0.7485(4) 0.2348(4)
H7 H 0.60810 0.70310 0.22810
C12 C 0.6918(5) 0.7829(4) 0.2198(4)
H8 H 0.74240 0.76110 0.20390
C13 C 0.6936(6) 0.8497(4) 0.2292(4)
H9 H 0.74500 0.87420 0.21790
C14 C 0.6196(5) 0.8814(4) 0.2555(4)
H10 H 0.62380 0.92670 0.26270
C15 C 0.5414(5) 0.8487(4) 0.2710(4)
H11 H 0.49340 0.87140 0.28910
C16 C 0.3334(5) 0.5808(4) 0.5207(4)
H12 H 0.30140 0.58440 0.47070
C17 C 0.3579(6) 0.5189(4) 0.5536(5)
H13 H 0.33920 0.48120 0.52540
C18 C 0.4078(5) 0.5127(4) 0.6252(4)
H14 H 0.42820 0.47150 0.64440
C19 C 0.4287(5) 0.5690(4) 0.6703(4)
H15 H 0.46010 0.56480 0.72030
C20 C 0.4032(6) 0.6290(4) 0.6411(4)
H16 H 0.41530 0.66580 0.67180
C21 C 0.3585(5) 0.6372(4) 0.5650(4)
C22 C 0.3373(5) 0.7011(4) 0.5250(4)
C23 C 0.3702(4) 0.7613(4) 0.5581(3)
H17 H 0.39590 0.76070 0.60920
C24 C 0.3690(5) 0.8210(4) 0.5239(4)
C25 C 0.3991(5) 0.8804(3) 0.5677(4)
C26 C 0.3976(5) 0.8900(4) 0.6405(4)
H18 H 0.36730 0.85830 0.66430
C27 C 0.4385(5) 0.9441(3) 0.6806(4)
H19 H 0.43860 0.94800 0.73090
C28 C 0.4792(5) 0.9921(4) 0.6445(4)
H20 H 0.50420 1.02970 0.67090
C29 C 0.4849(5) 0.9873(4) 0.5705(4)
H21 H 0.51440 1.02010 0.54780
C30 C 0.4448(5) 0.9315(3) 0.5320(4)
H22 H 0.44730 0.92680 0.48220
C31 C 0.0051(6) 0.5909(4) 0.3430(5)
H23 H 0.07380 0.58770 0.35270
C32 C -0.0553(6) 0.5358(4) 0.3348(4)
H24 H -0.02600 0.49440 0.34050
C33 C -0.1530(6) 0.5398(4) 0.3192(4)
H25 H -0.18960 0.50110 0.31320
C34 C -0.2032(5) 0.5992(4) 0.3112(4)
H26 H -0.27180 0.60060 0.30420
C35 C -0.1483(5) 0.6567(4) 0.3139(3)
H27 H -0.17980 0.69690 0.30160
C36 C -0.0449(5) 0.6532(4) 0.3354(4)
C37 C 0.0251(5) 0.7117(4) 0.3433(4)
C38 C -0.0149(5) 0.7743(4) 0.3679(4)
H28 H -0.08010 0.77560 0.37300
C39 C 0.0401(5) 0.8276(4) 0.3824(4)
C40 C 0.0045(3) 0.89028(19) 0.4129(3)
C41 C -0.0882(3) 0.89062(18) 0.4301(3)
H29 H -0.12850 0.85360 0.42060
C42 C -0.1206(3) 0.9463(2) 0.4614(3)
H30 H -0.18260 0.94660 0.47290
C43 C -0.0604(3) 1.00169(19) 0.4755(3)
H31 H -0.08200 1.03900 0.49640
C44 C 0.0323(3) 1.00135(19) 0.4583(3)
H32 H 0.07260 1.03840 0.46770
C45 C 0.0647(3) 0.9456(2) 0.4270(3)
H33 H 0.12670 0.94540 0.41550
C46 C 0.5126(6) 1.2916(4) 0.1563(4)
H34 H 0.44380 1.29120 0.14320
C47 C 0.5678(5) 1.3534(4) 0.1540(4)
H35 H 0.53500 1.39240 0.13750
C48 C 0.6667(5) 1.3516(4) 0.1763(4)
H36 H 0.70260 1.39020 0.17580
C49 C 0.7178(5) 1.2932(4) 0.2006(4)
H37 H 0.78630 1.29320 0.21740
C50 C 0.6652(6) 1.2371(4) 0.1990(4)
H38 H 0.69970 1.19820 0.21290
C51 C 0.5649(5) 1.2341(4) 0.1782(4)
C52 C 0.5079(6) 1.1705(4) 0.1712(4)
C53 C 0.5472(5) 1.1164(4) 0.1534(3)
H39 H 0.61410 1.11660 0.15280
C54 C 0.4909(5) 1.0546(3) 0.1343(3)
C55 C 0.5354(5) 0.9968(4) 0.1040(3)
C56 C 0.6274(5) 0.9962(4) 0.0923(4)
H40 H 0.66410 1.03450 0.10490
C57 C 0.6756(6) 0.9445(4) 0.0632(4)
H41 H 0.73970 0.94730 0.05590
C58 C 0.6136(5) 0.8868(4) 0.0461(4)
H42 H 0.63770 0.85050 0.02500
C59 C 0.5143(5) 0.8834(4) 0.0608(4)
H43 H 0.47580 0.84560 0.05090
C60 C 0.4793(5) 0.9409(4) 0.0909(4)
H44 H 0.41700 0.94040 0.10190
C61 C 0.1709(5) 1.2936(3) -0.0025(3)
H45 H 0.20320 1.29010 0.04730
C62 C 0.1400(5) 1.3546(4) -0.0335(4)
H46 H 0.15250 1.39160 -0.00320
C63 C 0.0912(5) 1.3630(4) -0.1081(4)
H47 H 0.07220 1.40430 -0.12790
C64 C 0.0718(5) 1.3034(4) -0.1528(5)
H48 H 0.03640 1.30560 -0.20200
C65 C 0.1066(5) 1.2426(3) -0.1215(4)
H49 H 0.09870 1.20490 -0.15100
C66 C 0.1526(5) 1.2388(4) -0.0468(4)
C67 C 0.1844(6) 1.1736(4) -0.0104(4)
C68 C 0.1448(5) 1.1117(4) -0.0421(4)
H50 H 0.10740 1.11160 -0.09080
C69 C 0.1590(5) 1.0536(3) -0.0048(4)
C70 C 0.1249(4) 0.9930(3) -0.0489(3)
C71 C 0.1324(5) 0.9836(3) -0.1229(4)
H51 H 0.15470 1.01860 -0.14740
C72 C 0.1078(5) 0.9236(4) -0.1624(4)
H52 H 0.11510 0.91820 -0.21100
C73 C 0.0713(5) 0.8723(3) -0.1231(3)
H53 H 0.04920 0.83350 -0.14810
C74 C 0.0679(4) 0.8782(3) -0.0502(4)
H54 H 0.04990 0.84240 -0.02480
C75 C 0.0917(5) 0.9388(3) -0.0133(3)
H55 H 0.08540 0.94320 0.03570
C76 C 0.2948(3) 1.3241(2) 0.2851(2)
H56 H 0.33880 1.29980 0.26450
C77 C 0.3253(2) 1.3828(2) 0.3219(3)
H57 H 0.38980 1.39770 0.32610
C78 C 0.2595(3) 1.41919(17) 0.3527(2)
H58 H 0.27990 1.45840 0.37730
C79 C 0.1631(3) 1.39694(19) 0.3465(2)
H59 H 0.11900 1.42130 0.36700
C80 C 0.1325(2) 1.3383(2) 0.3096(3)
H60 H 0.06800 1.32340 0.30550
C81 C 0.1984(3) 1.30187(17) 0.2789(2)
C82 C 0.1765(5) 1.2348(4) 0.2428(4)
C83 C 0.0999(5) 1.1954(3) 0.2626(4)
H61 H 0.06220 1.21290 0.29370
C84 C 0.0811(5) 1.1300(3) 0.2351(3)
C85 C -0.0042(5) 1.0926(3) 0.2547(4)
C86 C -0.0809(4) 1.1222(4) 0.2737(3)
H62 H -0.08100 1.16780 0.27850
C87 C -0.1645(5) 1.0844(4) 0.2871(4)
H63 H -0.21860 1.10590 0.29830
C88 C -0.1632(6) 1.0171(4) 0.2831(4)
H64 H -0.21560 0.99300 0.29340
C89 C -0.0839(5) 0.9844(4) 0.2639(3)
H65 H -0.08300 0.93870 0.26130
C90 C -0.0066(5) 1.0212(3) 0.2486(3)
H66 H 0.04520 0.99960 0.23410
C91 C 0.1846(5) 0.7109(4) 0.1726(4)
H67 H 0.16030 0.67560 0.19520
C92 C 0.2046(5) 0.7030(3) 0.1026(4)
C93 C 0.2416(4) 0.7548(4) 0.0685(4)
C94 C 0.2582(5) 0.8148(4) 0.1066(4)
H68 H 0.28430 0.85010 0.08520
C95 C 0.2373(5) 0.8217(4) 0.1725(4)
C96 C 0.2529(5) 0.8828(4) 0.2164(4)
C97 C 0.2542(5) 0.9418(4) 0.1823(4)
H69 H 0.24090 0.94390 0.13060
C98 C 0.2787(5) 0.9950(4) 0.2988(4)
C99 C 0.2764(6) 0.9339(4) 0.3339(4)
H70 H 0.28410 0.93200 0.38530
C100 C 0.2991(5) 1.0566(4) 0.3416(4)
C101 C 0.2957(5) 1.0599(4) 0.4145(4)
H71 H 0.27400 1.02390 0.43770
C102 C 0.3248(4) 1.1171(4) 0.4540(3)
C103 C 0.3610(5) 1.1689(4) 0.4199(4)
C104 C 0.3652(5) 1.1654(4) 0.3455(4)
H72 H 0.38910 1.20020 0.32180
C105 C 0.3218(5) 1.1256(3) 0.5357(3)
H73 H 0.25360 1.12310 0.54060
H74 H 0.35820 1.08990 0.56450
C106 C 0.3661(4) 1.1908(3) 0.5667(4)
H75 H 0.37050 1.19790 0.62000
C107 C 0.4657(5) 1.1991(4) 0.5403(4)
H76 H 0.49960 1.15810 0.53550
H77 H 0.51060 1.23160 0.56810
C108 C 0.3962(4) 1.2264(3) 0.4624(4)
H78 H 0.42350 1.26170 0.43690
C109 C 0.3217(5) 1.2480(3) 0.5153(4)
C110 C 0.3539(5) 1.3167(4) 0.5504(4)
H79 H 0.35620 1.34780 0.51150
H80 H 0.41840 1.31330 0.58300
H81 H 0.30710 1.33140 0.57810
C111 C 0.2099(4) 1.2485(4) 0.4758(4)
H82 H 0.19740 1.21510 0.43800
H83 H 0.19270 1.29080 0.45330
H84 H 0.17070 1.24000 0.51160
C112 C 0.2723(6) 0.7395(3) -0.0069(4)
H85 H 0.22990 0.76400 -0.04680
H86 H 0.34000 0.75390 -0.00330
C113 C 0.2647(5) 0.6682(3) -0.0250(4)
H87 H 0.28550 0.65520 -0.07040
C114 C 0.3066(5) 0.6258(4) 0.0453(4)
H88 H 0.36190 0.64590 0.08000
H89 H 0.32130 0.58070 0.03450
C115 C 0.2027(5) 0.6352(3) 0.0670(4)
H90 H 0.17890 0.59850 0.09290
C116 C 0.1577(5) 0.6418(4) -0.0178(4)
C117 C 0.1397(5) 0.5729(4) -0.0560(4)
H91 H 0.11170 0.54370 -0.02530
H92 H 0.20160 0.55530 -0.06240
H93 H 0.09490 0.57730 -0.10370
C118 C 0.0707(5) 0.6855(4) -0.0447(4)
H94 H 0.07930 0.70930 -0.08770
H95 H 0.06500 0.71600 -0.00600
H96 H 0.01160 0.65930 -0.05750
Dy1 Dy 0.25380(2) 0.76335(5) 0.353823(16)
Dy2 Dy 0.27467(2) 1.11342(5) 0.160966(18)
N1 N 0.2005(4) 0.7711(3) 0.2089(3)
N2 N 0.2630(4) 0.8774(3) 0.2933(3)
N3 N 0.2747(4) 0.9983(3) 0.2232(3)
N4 N 0.3314(4) 1.1070(3) 0.3078(3)
O1 O 0.3004(3) 0.6600(3) 0.3168(3)
O2 O 0.4042(3) 0.7751(2) 0.3224(2)
O3 O 0.2800(3) 0.7021(2) 0.4610(3)
O4 O 0.3372(3) 0.8280(2) 0.4542(3)
O5 O 0.1096(3) 0.7055(2) 0.3322(2)
O6 O 0.1374(3) 0.8298(2) 0.3791(2)
O7 O 0.4199(4) 1.1774(3) 0.1852(3)
O8 O 0.4042(3) 1.0473(3) 0.1391(3)
O9 O 0.2406(4) 1.1749(2) 0.0559(3)
O10 O 0.1951(3) 1.0446(3) 0.0632(3)
O11 O 0.2316(4) 1.2105(3) 0.2003(3)
O12 O 0.1263(3) 1.0989(2) 0.1946(2)
O13 O 0.9056(9) 0.2805(6) 0.4093(7)
H97 H 0.85180 0.30190 0.39570
H98 H 0.92790 0.27060 0.37140
O14 O 0.4107(8) 0.1079(7) 0.9111(6)
H99 H 0.44520 0.08110 0.94190
H100 H 0.35670 0.08940 0.88960
O15 O 0.9876(9) 0.1512(7) 0.4675(6)
H101 H 0.94890 0.14830 0.49720
H102 H 0.95360 0.15400 0.42310
O16 O 0.4581(10) 0.2344(7) 0.9687(6)
H103 H 0.49240 0.22900 0.93620
H104 H 0.47350 0.20500 1.00220
O17 O 0.1608(8) 0.8963(6) 0.6122(6)
H105 H 0.17750 0.85910 0.63230
H106 H 0.21220 0.91970 0.61450
#END

data_CSD_CIF_EDOFIO
_audit_creation_date 2013-03-18
_audit_creation_method CSD-ConQuest-V1
_database_code_CSD EDOFIO
_database_code_depnum_ccdc_archive 'CCDC 873088'
_chemical_formula_sum 'C118 H100 Dy2 N4 O14'
_chemical_formula_moiety
;
C118 H96 Dy2 N4 O12,2(H2 O1)
;
_journal_coden_Cambridge 1220
_journal_volume 18
_journal_year 2012
_journal_page_first 14632
_journal_name_full 'Chem.-Eur.J. '
loop_
_publ_author_name
"Xi-Li Li"
"Chun-Lai Chen"
"Yu-Liang Gao"
"Cai-Ming Liu"
"Xiang-Li Feng"
"Yang-Hai Gui"
"Shao-Ming Fang"
_chemical_name_systematic
;
(\m~2~-(S)-2,5-bis(4,5-pinene-2-pyridyl)pyrazine)-hexakis(1,3-diphenylprop-1-e
n-1-olato-3-onato)-di-dysprosium dihydrate
;
_cell_volume   5304.228
_exptl_crystal_density_diffrn 1.329
_diffrn_ambient_temperature 291
#These two values have been output from a single CSD field.
_refine_ls_R_factor_gt 0.0453
_refine_ls_wR_factor_gt 0.0453
loop_
_citation_database_id_CSD
_citation_special_details
EDOFEK "is a stereoisomer of this entry"
_symmetry_cell_setting monoclinic
_symmetry_space_group_name_H-M 'P 21'
_symmetry_Int_Tables_number 4
loop_
_symmetry_equiv_pos_site_id
_symmetry_equiv_pos_as_xyz
1 x,y,z
2 -x,1/2+y,-z
_cell_length_a 13.9492(7)
_cell_length_b 20.8237(12)
_cell_length_c 18.9873(10)
_cell_angle_alpha 90
_cell_angle_beta 105.903(5)
_cell_angle_gamma 90
_cell_formula_units_Z 2
loop_
_atom_type_symbol
_atom_type_radius_bond
C 0.68
H 0.23
Dy 1.92
N 0.68
O 0.68
loop_
_atom_site_label
_atom_site_type_symbol
_atom_site_fract_x
_atom_site_fract_y
_atom_site_fract_z
C1 C 0.7273(4) 1.1044(3) 0.7106(3)
H1 H 0.68410 1.08450 0.73340
C2 C 0.6990(4) 1.1614(3) 0.6737(3)
H2 H 0.63720 1.17950 0.67120
C3 C 0.7644(4) 1.1915(3) 0.6405(3)
H3 H 0.74620 1.23020 0.61590
C4 C 0.8564(4) 1.1645(3) 0.6438(3)
H4 H 0.89990 1.18490 0.62170
C5 C 0.8828(4) 1.1067(3) 0.6802(3)
H5 H 0.94420 1.08830 0.68190
C6 C 0.8192(4) 1.0756(3) 0.7145(3)
C7 C 0.8475(4) 1.0118(3) 0.7527(3)
C8 C 0.9237(4) 0.9691(3) 0.7327(3)
H6 H 0.95770 0.98520 0.70080
C9 C 0.9476(4) 0.9026(3) 0.7612(3)
C10 C 1.0279(4) 0.8649(3) 0.7395(3)
C11 C 1.1085(4) 0.8949(3) 0.7219(3)
H7 H 1.11110 0.93940 0.72020
C12 C 1.1836(5) 0.8589(3) 0.7072(3)
H8 H 1.23590 0.87940 0.69470
C13 C 1.1817(4) 0.7917(3) 0.7108(3)
H9 H 1.23320 0.76760 0.70190
C14 C 1.1026(4) 0.7616(3) 0.7277(3)
H10 H 1.10060 0.71700 0.72940
C15 C 1.0259(4) 0.7974(3) 0.7422(3)
H11 H 0.97310 0.77660 0.75380
C16 C 0.8054(5) 1.0662(3) 1.0116(3)
H12 H 0.75670 1.06280 0.96720
C17 C 0.8345(4) 1.1265(3) 1.0405(3)
H13 H 0.80540 1.16310 1.01550
C18 C 0.9074(4) 1.1320(3) 1.1070(3)
H14 H 0.92690 1.17260 1.12600
C19 C 0.9517(4) 1.0780(3) 1.1455(3)
H15 H 1.00050 1.08200 1.18980
C20 C 0.9210(4) 1.0168(4) 1.1156(3)
H16 H 0.94930 0.98010 1.14090
C21 C 0.8473(4) 1.0106(3) 1.0477(3)
C22 C 0.8252(4) 0.9464(3) 1.0091(3)
C23 C 0.8584(3) 0.8876(3) 1.0393(3)
H17 H 0.87660 0.88640 1.09020
C24 C 0.8698(4) 0.8253(3) 1.0030(3)
C25 C 0.9071(4) 0.7641(3) 1.0445(3)
C26 C 0.9009(4) 0.7548(3) 1.1160(3)
H18 H 0.87790 0.78800 1.13970
C27 C 0.9282(4) 0.6971(3) 1.1521(3)
H19 H 0.92410 0.69190 1.19990
C28 C 0.9623(4) 0.6463(3) 1.1162(3)
H20 H 0.98130 0.60750 1.14020
C29 C 0.9675(4) 0.6548(3) 1.0441(3)
H21 H 0.98880 0.62130 1.01970
C30 C 0.9405(4) 0.7134(3) 1.0095(3)
H22 H 0.94480 0.71890 0.96190
C31 C 0.4969(5) 1.0552(3) 0.8155(4)
H23 H 0.56560 1.05610 0.82270
C32 C 0.4425(4) 1.1128(3) 0.8038(3)
H24 H 0.47480 1.15190 0.80370
C33 C 0.3399(4) 1.1106(3) 0.7924(3)
H25 H 0.30360 1.14870 0.78450
C34 C 0.2906(4) 1.0526(3) 0.7927(3)
H26 H 0.22180 1.05180 0.78500
C35 C 0.3459(4) 0.9954(3) 0.8048(3)
H27 H 0.31400 0.95620 0.80510
C36 C 0.4493(5) 0.9976(3) 0.8163(3)
C37 C 0.5191(4) 0.9401(3) 0.8264(3)
C38 C 0.4853(4) 0.8871(4) 0.8525(3)
H28 H 0.42180 0.88850 0.85920
C39 C 0.5439(4) 0.8254(3) 0.8715(3)
C40 C 0.5163(4) 0.7678(3) 0.9108(3)
C41 C 0.4330(4) 0.7742(3) 0.9383(3)
H29 H 0.40860 0.81510 0.94270
C42 C 0.3862(5) 0.7224(3) 0.9591(3)
H30 H 0.33020 0.72870 0.97590
C43 C 0.4227(4) 0.6596(3) 0.9550(3)
H31 H 0.39230 0.62440 0.96990
C44 C 0.5058(4) 0.6518(3) 0.9277(3)
H32 H 0.53030 0.61080 0.92360
C45 C 0.5516(5) 0.7044(3) 0.9070(4)
H33 H 0.60730 0.69810 0.89000
C46 C 1.0155(5) 0.3478(3) 0.6623(3)
H34 H 0.94640 0.34590 0.65180
C47 C 1.0705(4) 0.2908(3) 0.6706(3)
H35 H 1.03840 0.25130 0.66710
C48 C 1.1731(4) 0.2935(3) 0.6840(3)
H36 H 1.20990 0.25570 0.68960
C49 C 1.2209(4) 0.3514(3) 0.6891(3)
H37 H 1.28960 0.35280 0.69680
C50 C 1.1669(5) 0.4083(3) 0.6829(3)
H38 H 1.20030 0.44740 0.68740
C51 C 1.0630(4) 0.4078(3) 0.6698(3)
C52 C 1.0011(4) 0.4686(3) 0.6570(3)
C53 C 1.0250(4) 0.5328(3) 0.6294(3)
H39 H 1.08840 0.53590 0.62270
C54 C 0.9648(4) 0.5913(3) 0.6115(3)
C55 C 1.0157(4) 0.6478(3) 0.5872(3)
C56 C 1.1063(4) 0.6505(3) 0.5702(3)
H40 H 1.15120 0.61660 0.58250
C57 C 1.1292(4) 0.7046(3) 0.5345(3)
H41 H 1.19020 0.70650 0.52350
C58 C 1.0638(4) 0.7552(4) 0.5152(3)
H42 H 1.07990 0.79040 0.49050
C59 C 0.9742(4) 0.7533(3) 0.5328(3)
H43 H 0.93010 0.78760 0.52100
C60 C 0.9501(4) 0.6994(3) 0.5683(3)
H44 H 0.88930 0.69790 0.57960
C61 C 0.6686(4) 0.3421(3) 0.4793(3)
H45 H 0.70260 0.34450 0.52880
C62 C 0.6464(4) 0.2821(3) 0.4464(3)
H46 H 0.66340 0.24510 0.47450
C63 C 0.5991(4) 0.2770(3) 0.3717(3)
H47 H 0.58670 0.23690 0.34940
C64 C 0.5705(4) 0.3329(3) 0.3310(3)
H48 H 0.53740 0.33030 0.28140
C65 C 0.5913(4) 0.3924(4) 0.3643(3)
H49 H 0.57190 0.42910 0.33590
C66 C 0.6401(4) 0.4000(3) 0.4387(3)
C67 C 0.6693(4) 0.4654(3) 0.4723(3)
C68 C 0.6270(4) 0.5289(3) 0.4394(3)
H50 H 0.58810 0.52970 0.39100
C69 C 0.6449(4) 0.5905(3) 0.4814(3)
C70 C 0.6072(4) 0.6516(3) 0.4400(3)
C71 C 0.6160(4) 0.6592(3) 0.3695(3)
H51 H 0.64160 0.62570 0.34770
C72 C 0.5870(4) 0.7161(3) 0.3307(3)
H52 H 0.59400 0.72080 0.28360
C73 C 0.5475(4) 0.7660(3) 0.3634(3)
H53 H 0.52670 0.80390 0.33770
C74 C 0.5391(4) 0.7592(3) 0.4343(3)
H54 H 0.51340 0.79260 0.45610
C75 C 0.5690(4) 0.7025(3) 0.4726(3)
H55 H 0.56370 0.69830 0.52020
C76 C 0.7888(4) 0.3182(3) 0.7623(3)
H56 H 0.82470 0.34220 0.73700
C77 C 0.8300(5) 0.2633(3) 0.7983(3)
H57 H 0.89280 0.25010 0.79610
C78 C 0.7781(4) 0.2272(3) 0.8384(3)
H58 H 0.80690 0.19090 0.86420
C79 C 0.6838(5) 0.2463(3) 0.8388(3)
H59 H 0.64800 0.22180 0.86380
C80 C 0.6415(5) 0.3016(3) 0.8027(3)
H60 H 0.57840 0.31450 0.80440
C81 C 0.6942(4) 0.3382(3) 0.7632(3)
C82 C 0.6689(4) 0.4041(3) 0.7294(4)
C83 C 0.5910(5) 0.4438(3) 0.7515(3)
H61 H 0.55260 0.42570 0.77930
C84 C 0.5764(4) 0.5130(3) 0.7277(3)
C85 C 0.4909(4) 0.5472(3) 0.7465(3)
C86 C 0.4134(4) 0.5176(3) 0.7670(3)
H62 H 0.41050 0.47310 0.76890
C87 C 0.3403(4) 0.5544(3) 0.7845(3)
H63 H 0.28960 0.53450 0.79950
C88 C 0.3427(4) 0.6197(3) 0.7799(3)
H64 H 0.29250 0.64400 0.79040
C89 C 0.4200(4) 0.6506(3) 0.7593(3)
H65 H 0.42200 0.69520 0.75680
C90 C 0.4940(4) 0.6133(3) 0.7427(3)
H66 H 0.54580 0.63310 0.72890
C91 C 0.6711(5) 0.9377(3) 0.6483(3)
H67 H 0.65590 0.97450 0.67080
C92 C 0.6768(5) 0.9426(3) 0.5748(3)
C93 C 0.7116(4) 0.8883(4) 0.5479(3)
C94 C 0.7267(4) 0.8298(3) 0.5865(3)
H68 H 0.74050 0.79350 0.56260
C95 C 0.7224(4) 0.8238(3) 0.6543(3)
C96 C 0.7421(5) 0.7622(3) 0.6989(3)
C97 C 0.7445(4) 0.7007(3) 0.6648(3)
H69 H 0.73510 0.69780 0.61440
C98 C 0.7698(4) 0.7118(3) 0.8171(3)
H70 H 0.78360 0.71520 0.86770
C99 C 0.7700(4) 0.6466(3) 0.7823(3)
C100 C 0.7888(4) 0.5932(3) 0.8267(3)
C101 C 0.7844(4) 0.5878(3) 0.8991(4)
H71 H 0.76630 0.62400 0.92120
C102 C 0.8059(4) 0.5305(4) 0.9410(3)
C103 C 0.8340(4) 0.4733(3) 0.9049(3)
C104 C 0.8416(4) 0.4741(3) 0.8321(3)
H72 H 0.85910 0.43760 0.81030
C105 C 0.8215(4) 0.5322(3) 1.0217(3)
H73 H 0.75850 0.53680 1.03350
H74 H 0.86460 0.56770 1.04340
C106 C 0.8734(4) 0.4642(3) 1.0510(4)
H75 H 0.89610 0.46060 1.10450
C107 C 0.9493(4) 0.4428(3) 1.0121(3)
H76 H 0.98140 0.47820 0.99420
H77 H 0.99850 0.41320 1.04060
C108 C 0.8729(4) 0.4120(3) 0.9558(3)
H78 H 0.88990 0.37290 0.93320
C109 C 0.8110(5) 0.4057(3) 1.0120(3)
C110 C 0.6957(4) 0.4114(3) 0.9826(3)
H79 H 0.66840 0.42370 1.02180
H80 H 0.66840 0.37070 0.96320
H81 H 0.67930 0.44320 0.94460
C111 C 0.8396(5) 0.3401(3) 1.0533(3)
H82 H 0.81040 0.33790 1.09360
H83 H 0.91070 0.33700 1.07150
H84 H 0.81500 0.30520 1.02020
C112 C 0.7625(5) 0.8981(3) 0.4899(3)
H85 H 0.72960 0.87180 0.44810
H86 H 0.83050 0.88280 0.50790
C113 C 0.7653(4) 0.9707(3) 0.4625(3)
H87 H 0.79640 0.98080 0.42340
C114 C 0.7957(4) 1.0073(3) 0.5345(3)
H88 H 0.82110 1.05010 0.53000
H89 H 0.84090 0.98370 0.57380
C115 C 0.6865(4) 1.0068(3) 0.5385(3)
H90 H 0.66270 1.04510 0.55840
C116 C 0.6558(4) 0.9988(3) 0.4592(3)
C117 C 0.5595(4) 0.9600(3) 0.4259(3)
H91 H 0.57660 0.91740 0.41440
H92 H 0.52120 0.98080 0.38200
H93 H 0.52080 0.95780 0.46060
C118 C 0.6484(4) 1.0674(3) 0.4170(3)
H94 H 0.67180 1.10090 0.45220
H95 H 0.58030 1.07560 0.39060
H96 H 0.68870 1.06610 0.38340
Dy1 Dy 0.751620(18) 0.88723(4) 0.834216(15)
Dy2 Dy 0.75915(2) 0.52770(4) 0.647970(15)
N1 N 0.6881(3) 0.8776(3) 0.6905(2)
N2 N 0.7485(3) 0.7686(3) 0.7725(3)
N3 N 0.7616(4) 0.6441(3) 0.7088(3)
N4 N 0.8208(3) 0.5350(3) 0.7925(3)
O1 O 0.7932(3) 0.9872(2) 0.7958(2)
O2 O 0.9004(3) 0.87430(18) 0.79880(18)
O3 O 0.7697(3) 0.9465(2) 0.9410(2)
O4 O 0.8370(3) 0.8212(2) 0.93278(19)
O5 O 0.5970(3) 0.94369(19) 0.8117(2)
O6 O 0.6321(3) 0.8195(2) 0.8617(2)
O7 O 0.9090(3) 0.4651(2) 0.6720(2)
O8 O 0.8773(3) 0.5963(2) 0.6223(2)
O9 O 0.7242(3) 0.4660(2) 0.5420(2)
O10 O 0.6777(3) 0.5945(2) 0.5504(2)
O11 O 0.7186(3) 0.4246(2) 0.6871(2)
O12 O 0.6216(3) 0.5387(2) 0.6881(2)
O13 O 0.6028(6) 0.8543(5) 0.0741(5)
H97 H 0.54350 0.86130 0.04820
H98 H 0.61290 0.81400 0.07820
O14 O 0.1021(8) 0.0279(8) 0.5852(6)
H99 H 0.12150 0.06010 0.56530
H100 H 0.08550 -0.00230 0.55410
O15 O 0.0403(10) 0.9159(7) 0.5305(7)
H101 H 0.00550 0.92990 0.55750
H102 H 0.01380 0.92720 0.48640
O16 O 0.5276(7) 1.0037(5) 0.0060(6)
H103 H 0.55170 1.01480 -0.02870
H104 H 0.47740 0.97950 -0.01060
O17 O 0.3649(9) 0.2110(6) 0.9185(7)
H105 H 0.37910 0.17860 0.94660
H106 H 0.40330 0.24200 0.93680
O18 O 0.1192(9) 0.1503(6) 0.6458(7)
H107 H 0.05880 0.15080 0.64710
H108 H 0.12720 0.17760 0.61460
#END

data_CSD_CIF_PUQBUZ
_audit_creation_date 2010-09-06
_audit_creation_method CSD-ConQuest-V1
_database_code_CSD PUQBUZ
_database_code_depnum_ccdc_archive 'CCDC 742711'
_chemical_formula_sum 'C62 H51 Dy1 N2 O6'
_chemical_formula_moiety
;
C62 H51 Dy1 N2 O6
;
_journal_coden_Cambridge 119
_journal_volume 964
_journal_year 2010
_journal_page_first 63
_journal_name_full 'J.Mol.Struct. '
loop_
_publ_author_name
"Xi-Li Li"
"Lai-Fu He"
"Shao-Ming Fang"
"Hong-Ping Xiao"
_chemical_name_systematic
;
((S,S)-7,7-Dimethyl-3-(2-pyridyl)-5,6,7,8-tetrahydro-6,8-methanoisoquinoline-N
,N')-bis(dibenzoylmethanato-O,O')-dysprosium(iii)
;
_cell_volume   2510.186
_exptl_crystal_colour 'yellow'
_exptl_crystal_density_diffrn 1.432
_exptl_crystal_description 'block'
_diffrn_ambient_temperature 298
#These two values have been output from a single CSD field.
_refine_ls_R_factor_gt 0.0541
_refine_ls_wR_factor_gt 0.0541
loop_
_citation_database_id_CSD
_citation_special_details
PUQCAG "is a stereoisomer of this entry"
_symmetry_cell_setting monoclinic
_symmetry_space_group_name_H-M 'P 21'
_symmetry_Int_Tables_number 4
loop_
_symmetry_equiv_pos_site_id
_symmetry_equiv_pos_as_xyz
1 x,y,z
2 -x,1/2+y,-z
_cell_length_a 9.5021(10)
_cell_length_b 20.735(2)
_cell_length_c 12.7497(13)
_cell_angle_alpha 90
_cell_angle_beta 92.191(2)
_cell_angle_gamma 90
_cell_formula_units_Z 2
loop_
_atom_type_symbol
_atom_type_radius_bond
C 0.68
H 0.23
Dy 1.92
N 0.68
O 0.68
loop_
_atom_site_label
_atom_site_type_symbol
_atom_site_fract_x
_atom_site_fract_y
_atom_site_fract_z
C1 C 0.6514(10) 0.6670(4) -0.0597(6)
H1 H 0.73340 0.64370 -0.06950
C2 C 0.5702(8) 0.6833(8) -0.1446(5)
H2 H 0.59830 0.67300 -0.21160
C3 C 0.4495(10) 0.7141(5) -0.1315(7)
H3 H 0.39100 0.72350 -0.18960
C4 C 0.4101(11) 0.7321(4) -0.0335(7)
H4 H 0.32690 0.75450 -0.02360
C5 C 0.4996(8) 0.7156(4) 0.0495(6)
C6 C 0.4619(7) 0.7307(3) 0.1617(6)
C7 C 0.3429(8) 0.7641(4) 0.1812(6)
H5 H 0.28630 0.78060 0.12640
C8 C 0.3067(9) 0.7733(4) 0.2873(7)
C9 C 0.3953(8) 0.7494(3) 0.3623(6)
C10 C 0.5155(7) 0.7160(3) 0.3338(5)
H6 H 0.57330 0.69850 0.38690
C11 C 0.1818(8) 0.8136(4) 0.3171(7)
H7 H 0.09500 0.79410 0.28990
H8 H 0.18900 0.85660 0.28810
C12 C 0.1821(9) 0.8167(4) 0.4373(7)
H9 H 0.10190 0.84030 0.46430
C13 C 0.3231(10) 0.8337(5) 0.4931(8)
C14 C 0.3606(10) 0.7591(5) 0.4742(8)
H10 H 0.42090 0.73760 0.52770
C15 C 0.1967(11) 0.7492(5) 0.4800(8)
H11 H 0.15860 0.71600 0.43340
H12 H 0.16400 0.74400 0.55070
C16 C 0.3129(11) 0.8513(5) 0.6056(7)
H13 H 0.25870 0.89010 0.61130
H14 H 0.40570 0.85810 0.63610
H15 H 0.26780 0.81700 0.64220
C17 C 0.4134(10) 0.8827(4) 0.4380(7)
H16 H 0.50410 0.88540 0.47360
H17 H 0.36840 0.92410 0.43890
H18 H 0.42470 0.86950 0.36660
C18 C 0.8123(10) 0.5605(5) 0.3637(10)
C19 C 0.8259(10) 0.5463(4) 0.4797(9)
C20 C 0.7363(12) 0.5785(5) 0.5458(9)
H19 H 0.67260 0.60870 0.51810
C21 C 0.7414(11) 0.5661(5) 0.6513(8)
H20 H 0.68290 0.58840 0.69550
C22 C 0.8356(12) 0.5195(7) 0.6921(10)
H21 H 0.83940 0.51130 0.76390
C23 C 0.9231(9) 0.4855(4) 0.6276(6)
H22 H 0.98340 0.45400 0.65510
C24 C 0.919(1) 0.4997(4) 0.5200(6)
H23 H 0.97820 0.47800 0.47560
C25 C 0.8522(9) 0.5149(4) 0.2902(5)
H24 H 0.88720 0.47560 0.31510
C26 C 0.8430(7) 0.5243(4) 0.1818(6)
C27 C 0.8722(8) 0.4663(3) 0.1126(6)
C28 C 0.9176(9) 0.4785(4) 0.0109(6)
H25 H 0.92210 0.52070 -0.01360
C29 C 0.9552(9) 0.4284(5) -0.0522(6)
H26 H 0.98660 0.43710 -0.11890
C30 C 0.9474(10) 0.3657(4) -0.0187(7)
H27 H 0.97180 0.33210 -0.06270
C31 C 0.9015(11) 0.3528(5) 0.0840(8)
H28 H 0.89480 0.31050 0.10750
C32 C 0.8668(10) 0.4035(3) 0.1490(7)
H29 H 0.83980 0.39530 0.21710
C33 C 1.1323(8) 0.6219(3) 0.2149(5)
C34 C 1.2327(8) 0.5900(4) 0.2863(7)
C35 C 1.2013(10) 0.5841(3) 0.3925(7)
H30 H 1.11670 0.60000 0.41630
C36 C 1.299(1) 0.5540(5) 0.4630(7)
H31 H 1.27960 0.55010 0.53370
C37 C 1.4236(10) 0.5306(4) 0.4260(8)
H32 H 1.48640 0.50970 0.47230
C38 C 1.4572(9) 0.5370(4) 0.3236(7)
H33 H 1.54340 0.52270 0.30040
C39 C 1.3583(10) 0.5658(4) 0.2547(8)
H34 H 1.37880 0.56880 0.18410
C40 C 1.1428(8) 0.6175(4) 0.1043(6)
H35 H 1.21540 0.59230 0.07970
C41 C 1.0560(8) 0.6470(3) 0.0301(6)
C42 C 1.0867(8) 0.6390(4) -0.0843(6)
C43 C 1.0284(8) 0.6825(8) -0.1574(5)
H36 H 0.96890 0.71500 -0.13520
C44 C 1.0583(9) 0.6777(6) -0.2624(6)
H37 H 1.01950 0.70720 -0.31030
C45 C 1.1458(9) 0.6292(5) -0.2966(7)
H38 H 1.16530 0.62580 -0.36730
C46 C 1.2037(10) 0.5860(5) -0.2251(6)
H39 H 1.26440 0.55430 -0.24810
C47 C 1.1737(10) 0.5888(4) -0.1192(6)
H40 H 1.21020 0.55810 -0.07230
C48 C 0.8008(10) 0.8070(4) 0.3631(8)
C49 C 0.7969(9) 0.8212(5) 0.4791(8)
C50 C 0.790(1) 0.7689(4) 0.5469(7)
H41 H 0.78750 0.72710 0.52020
C51 C 0.7868(12) 0.7790(5) 0.6546(9)
H42 H 0.78220 0.74400 0.69990
C52 C 0.7905(11) 0.8414(7) 0.6944(7)
H43 H 0.78840 0.84820 0.76640
C53 C 0.7974(9) 0.8937(5) 0.6266(7)
H44 H 0.79990 0.93550 0.65320
C54 C 0.8006(9) 0.8836(4) 0.5189(6)
H45 H 0.80520 0.91860 0.47350
C55 C 0.7449(8) 0.8534(4) 0.2890(6)
H46 H 0.71770 0.89350 0.31380
C56 C 0.7298(9) 0.8412(4) 0.1836(6)
C57 C 0.6548(8) 0.8882(4) 0.1126(7)
C58 C 0.6675(10) 0.8821(5) 0.0050(7)
H47 H 0.72580 0.85060 -0.02190
C59 C 0.5910(11) 0.9243(5) -0.0637(9)
H48 H 0.60000 0.92120 -0.13590
C60 C 0.5021(10) 0.9705(5) -0.0221(7)
H49 H 0.44910 0.99720 -0.06680
C61 C 0.4924(10) 0.9767(4) 0.0844(7)
H50 H 0.43520 1.00860 0.11120
C62 C 0.5681(10) 0.9352(5) 0.1539(7)
H51 H 0.56020 0.93920 0.22600
Dy1 Dy 0.80812(3) 0.68251(2) 0.19407(2)
N1 N 0.6183(6) 0.6836(5) 0.0403(4)
N2 N 0.5518(6) 0.7079(3) 0.2364(5)
O1 O 0.7644(6) 0.6179(3) 0.3394(4)
O2 O 0.8042(7) 0.5754(3) 0.1349(5)
O3 O 1.0341(5) 0.6547(2) 0.2562(4)
O4 O 0.9544(4) 0.6815(4) 0.0485(3)
O5 O 0.8414(6) 0.7510(3) 0.3380(4)
O6 O 0.7738(7) 0.7920(3) 0.1388(6)
#END

data_CSD_CIF_PUQCAG
_audit_creation_date 2010-09-06
_audit_creation_method CSD-ConQuest-V1
_database_code_CSD PUQCAG
_database_code_depnum_ccdc_archive 'CCDC 742712'
_chemical_formula_sum 'C62 H51 Dy1 N2 O6'
_chemical_formula_moiety
;
C62 H51 Dy1 N2 O6
;
_journal_coden_Cambridge 119
_journal_volume 964
_journal_year 2010
_journal_page_first 63
_journal_name_full 'J.Mol.Struct. '
loop_
_publ_author_name
"Xi-Li Li"
"Lai-Fu He"
"Shao-Ming Fang"
"Hong-Ping Xiao"
_chemical_name_systematic
;
((R,R)-7,7-Dimethyl-3-(2-pyridyl)-5,6,7,8-tetrahydro-6,8-methanoisoquinoline-N
,N')-bis(dibenzoylmethanato-O,O')-dysprosium(iii)
;
_cell_volume   2514.542
_exptl_crystal_colour 'yellow'
_exptl_crystal_density_diffrn 1.43
_exptl_crystal_description 'block'
_diffrn_ambient_temperature 298
#These two values have been output from a single CSD field.
_refine_ls_R_factor_gt 0.0543
_refine_ls_wR_factor_gt 0.0543
loop_
_citation_database_id_CSD
_citation_special_details
PUQBUZ "is a stereoisomer of this entry"
_symmetry_cell_setting monoclinic
_symmetry_space_group_name_H-M 'P 21'
_symmetry_Int_Tables_number 4
loop_
_symmetry_equiv_pos_site_id
_symmetry_equiv_pos_as_xyz
1 x,y,z
2 -x,1/2+y,-z
_cell_length_a 9.5123(13)
_cell_length_b 20.745(3)
_cell_length_c 12.7512(11)
_cell_angle_alpha 90
_cell_angle_beta 92.098(2)
_cell_angle_gamma 90
_cell_formula_units_Z 2
loop_
_atom_type_symbol
_atom_type_radius_bond
C 0.68
H 0.23
Dy 1.92
N 0.68
O 0.68
loop_
_atom_site_label
_atom_site_type_symbol
_atom_site_fract_x
_atom_site_fract_y
_atom_site_fract_z
C1 C 1.0580(8) 0.7266(4) 0.5303(6)
C2 C 1.0871(9) 0.7352(5) 0.4177(7)
C3 C 1.1735(10) 0.7844(4) 0.3835(7)
H1 H 1.21110 0.81420 0.43130
C4 C 1.2035(9) 0.7891(5) 0.2779(6)
H2 H 1.26130 0.82200 0.25500
C5 C 1.1472(8) 0.7446(4) 0.2065(6)
H3 H 1.16730 0.74780 0.13580
C6 C 1.0609(8) 0.6954(8) 0.2407(5)
H4 H 1.02320 0.66570 0.19290
C7 C 1.0308(6) 0.6907(7) 0.3462(5)
H5 H 0.97300 0.65780 0.36910
C8 C 1.1391(8) 0.7563(5) 0.6055(7)
H6 H 1.20950 0.78320 0.58190
C9 C 1.1292(9) 0.7513(4) 0.7131(7)
C10 C 1.2337(8) 0.7825(4) 0.7873(6)
C11 C 1.3634(9) 0.8084(4) 0.7574(7)
H7 H 1.38580 0.80630 0.68710
C12 C 1.4564(8) 0.8361(4) 0.8258(7)
H8 H 1.54340 0.85010 0.80370
C13 C 1.4212(7) 0.8433(4) 0.9277(6)
H9 H 1.48460 0.86340 0.97440
C14 C 1.2903(9) 0.8211(4) 0.9651(6)
H10 H 1.26600 0.82720 1.03440
C15 C 1.2014(8) 0.7902(4) 0.8933(6)
H11 H 1.11670 0.77380 0.91600
C16 C 0.8443(8) 0.8496(4) 0.6819(6)
C17 C 0.8710(9) 0.9072(4) 0.6117(7)
C18 C 0.8621(8) 0.9705(4) 0.6466(6)
H12 H 0.83260 0.97910 0.71390
C19 C 0.8971(8) 1.0210(4) 0.5808(6)
H13 H 0.89120 1.06340 0.60410
C20 C 0.9412(9) 1.0082(4) 0.4802(7)
H14 H 0.96470 1.04190 0.43620
C21 C 0.9501(8) 0.9449(4) 0.4453(6)
H15 H 0.97960 0.93630 0.37800
C22 C 0.9150(8) 0.8944(4) 0.5111(6)
H16 H 0.92100 0.85200 0.48780
C23 C 0.8525(9) 0.8586(4) 0.7912(6)
H17 H 0.88750 0.89750 0.81740
C24 C 0.8095(11) 0.8106(5) 0.8638(10)
C25 C 0.8205(10) 0.8270(6) 0.9792(7)
C26 C 0.9105(8) 0.8730(4) 1.0194(6)
H18 H 0.96660 0.89580 0.97420
C27 C 0.9199(8) 0.8863(4) 1.1272(6)
H19 H 0.98220 0.91690 1.15530
C28 C 0.8303(10) 0.8510(7) 1.1902(7)
H20 H 0.83710 0.85670 1.26250
C29 C 0.7368(9) 0.8101(5) 1.1511(7)
H21 H 0.67310 0.79080 1.19490
C30 C 0.7327(8) 0.7955(4) 1.0443(6)
H22 H 0.67050 0.76460 1.01760
C31 C 0.7327(9) 0.5350(4) 0.6818(7)
C32 C 0.6573(8) 0.4865(4) 0.6127(6)
C33 C 0.5708(8) 0.4390(4) 0.6524(6)
H23 H 0.56300 0.43450 0.72450
C34 C 0.4961(8) 0.3982(4) 0.5842(6)
H24 H 0.43820 0.36640 0.61080
C35 C 0.5078(10) 0.4048(4) 0.4764(6)
H25 H 0.45770 0.37750 0.43080
C36 C 0.5942(9) 0.4523(4) 0.4368(6)
H26 H 0.60200 0.45680 0.36460
C37 C 0.6690(9) 0.4931(5) 0.5049(7)
H27 H 0.72680 0.52490 0.47840
C38 C 0.7484(9) 0.5246(4) 0.7883(6)
H28 H 0.72000 0.48470 0.81320
C39 C 0.8018(10) 0.5677(5) 0.8608(9)
C40 C 0.8011(10) 0.5550(5) 0.9775(8)
C41 C 0.8044(8) 0.4920(4) 1.0146(6)
H29 H 0.80810 0.45780 0.96780
C42 C 0.8020(8) 0.4802(4) 1.1219(6)
H30 H 0.80420 0.43810 1.14670
C43 C 0.7964(9) 0.5314(7) 1.1919(7)
H31 H 0.79480 0.52350 1.26370
C44 C 0.7932(9) 0.5944(5) 1.1548(7)
H32 H 0.78940 0.62870 1.20170
C45 C 0.7955(9) 0.6062(4) 1.0476(7)
H33 H 0.79340 0.64840 1.02270
C46 C 0.6566(9) 0.7079(4) 0.4440(6)
H34 H 0.73780 0.73170 0.43400
C47 C 0.5766(7) 0.6884(7) 0.3572(5)
H35 H 0.61020 0.69430 0.29030
C48 C 0.4535(9) 0.6615(4) 0.3690(7)
H36 H 0.39220 0.65440 0.31160
C49 C 0.4178(8) 0.6441(4) 0.4682(6)
H37 H 0.33420 0.62210 0.47820
C50 C 0.5046(8) 0.6591(4) 0.5530(6)
C51 C 0.4679(10) 0.6445(4) 0.6640(6)
C52 C 0.3465(8) 0.6103(4) 0.6843(6)
H38 H 0.28920 0.59460 0.62940
C53 C 0.3116(10) 0.5999(5) 0.7884(7)
C54 C 0.3962(8) 0.6242(4) 0.8649(5)
C55 C 0.5192(9) 0.6585(4) 0.8321(6)
H39 H 0.57670 0.67650 0.88500
C56 C 0.1851(8) 0.5586(4) 0.8213(6)
H40 H 0.09830 0.57720 0.79290
H41 H 0.19360 0.51530 0.79360
C57 C 0.1822(8) 0.5564(4) 0.9363(6)
H42 H 0.10160 0.53280 0.96270
C58 C 0.3619(8) 0.6125(4) 0.9763(6)
H43 H 0.42280 0.63340 1.02980
C59 C 0.1988(9) 0.6260(4) 0.9818(7)
H44 H 0.16550 0.63120 1.05230
H45 H 0.16390 0.65990 0.93530
C60 C 0.3265(9) 0.5393(4) 0.9948(7)
C61 C 0.4182(9) 0.4906(5) 0.9394(6)
H46 H 0.35940 0.46070 0.90070
H47 H 0.47530 0.46760 0.99060
H48 H 0.47780 0.51280 0.89220
C62 C 0.3180(8) 0.5247(4) 1.1066(6)
H49 H 0.40910 0.51210 1.13430
H50 H 0.25250 0.49010 1.11580
H51 H 0.28680 0.56220 1.14320
Dy1 Dy 0.80868(3) 0.69203(2) 0.69474(2)
N1 N 0.6216(6) 0.6938(6) 0.5417(4)
N2 N 0.5560(6) 0.6666(3) 0.7408(5)
O1 O 0.9576(5) 0.6864(4) 0.5510(3)
O2 O 1.0343(5) 0.7192(3) 0.7585(4)
O3 O 0.8034(6) 0.7975(3) 0.6356(5)
O4 O 0.7630(6) 0.7567(3) 0.8384(4)
O5 O 0.7765(7) 0.5844(4) 0.6404(6)
O6 O 0.8447(6) 0.6231(3) 0.8373(5)
#END

data_CSD_CIF_UMITOB
_audit_creation_date 2016-05-04
_audit_creation_method CSD-ConQuest-V1
_database_code_CSD UMITOB
_database_code_depnum_ccdc_archive 'CCDC 962684'
_chemical_formula_sum 'C100 H74 Cl6 Dy2 N4 O12'
_chemical_formula_moiety
;
C98 H72 Dy2 N4 O12,2(C1 H1 Cl3)
;
_journal_coden_Cambridge 222
_journal_volume 45
_journal_year 2016
_journal_page_first 8790
_journal_name_full 'Dalton Trans. '
loop_
_publ_author_name
"Wen-Bin Sun"
"Bing Yan"
"Li-Hui Jia"
"Bing-Wu Wang"
"Qian Yang"
"Xin Cheng"
"Hong-Feng Li"
"Peng Chen"
"Zhe-Ming Wang"
"Song Gao"
_chemical_name_systematic
;
(\m-2,2'-bipyrimidine)-hexakis(1,3-diphenylpropane-1,3-dionato)-di-dysprosium 
chloroform solvate
;
_cell_volume   9015.193
_exptl_crystal_colour 'light yellow'
_exptl_crystal_density_diffrn 1.519
_exptl_crystal_description 'block'
_diffrn_ambient_temperature 293
#These two values have been output from a single CSD field.
_refine_ls_R_factor_gt 0.0302
_refine_ls_wR_factor_gt 0.0302
_symmetry_cell_setting monoclinic
_symmetry_space_group_name_H-M 'P 21/c'
_symmetry_Int_Tables_number 14
loop_
_symmetry_equiv_pos_site_id
_symmetry_equiv_pos_as_xyz
1 x,y,z
2 -x,1/2+y,1/2-z
3 -x,-y,-z
4 x,-1/2-y,-1/2+z
_cell_length_a 20.8489(3)
_cell_length_b 19.5533(3)
_cell_length_c 22.3388(4)
_cell_angle_alpha 90
_cell_angle_beta 98.1311(16)
_cell_angle_gamma 90
_cell_formula_units_Z 4
loop_
_atom_type_symbol
_atom_type_radius_bond
C 0.68
H 0.23
Cl 0.99
Dy 1.92
N 0.68
O 0.68
loop_
_atom_site_label
_atom_site_type_symbol
_atom_site_fract_x
_atom_site_fract_y
_atom_site_fract_z
Dy1 Dy 0.871734(6) 0.655921(6) 0.246652(6)
Dy2 Dy 0.630093(6) 0.426478(6) 0.254738(6)
O1 O 0.54762(9) 0.35282(10) 0.26925(10)
O2 O 0.56684(10) 0.49136(10) 0.31134(10)
O3 O 0.55140(9) 0.46894(10) 0.18187(9)
O4 O 0.83385(10) 0.64086(10) 0.33993(9)
O5 O 0.93895(9) 0.58804(10) 0.19970(9)
O6 O 0.83515(9) 0.66342(10) 0.14497(9)
O7 O 0.67153(10) 0.42846(10) 0.16464(10)
O8 O 0.95903(9) 0.63744(10) 0.31910(9)
O9 O 0.94323(9) 0.73639(10) 0.21867(10)
O10 O 0.6728(1) 0.31703(10) 0.25362(10)
O11 O 0.66936(10) 0.41005(10) 0.35487(9)
N1 N 0.66581(11) 0.55186(12) 0.24788(11)
N2 N 0.83737(11) 0.52921(11) 0.25514(11)
N3 N 0.74881(11) 0.62978(11) 0.23148(11)
N4 N 0.75379(11) 0.45165(11) 0.27087(11)
C1 C 1.01613(17) 0.50381(17) 0.08540(15)
H1 H 0.98670 0.51190 0.05080
C2 C 0.42186(16) 0.59533(16) 0.02818(15)
H2 H 0.41520 0.61340 -0.01070
C3 C 0.85425(17) 0.68901(15) -0.01147(14)
H3 H 0.89860 0.68160 -0.00960
C4 C 0.91636(15) 0.61217(15) 0.09604(13)
H4 H 0.93140 0.60710 0.05900
C5 C 0.63785(14) 0.40212(15) 0.39913(14)
C6 C 0.82958(13) 0.81794(13) 0.22830(13)
C7 C 0.8186(2) 0.71158(16) -0.06528(15)
H5 H 0.83890 0.71920 -0.09920
C8 C 0.63975(14) 0.66733(15) 0.22367(14)
H6 H 0.60920 0.70210 0.21660
C9 C 0.39030(15) 0.32764(16) 0.35800(15)
H7 H 0.35580 0.35800 0.35050
C10 C 0.63397(17) 0.31097(16) 0.47858(15)
H8 H 0.58900 0.31080 0.47030
C11 C 0.48792(15) 0.51670(16) 0.37359(15)
C12 C 0.86219(15) 0.41254(15) 0.27792(15)
H9 H 0.89240 0.37730 0.28440
C13 C 0.62221(14) 0.60189(14) 0.23792(14)
H10 H 0.57900 0.59250 0.24060
C14 C 0.87887(13) 0.83443(14) 0.19508(13)
H11 H 0.87560 0.87530 0.17360
C15 C 0.49135(14) 0.53791(14) 0.10792(14)
C16 C 0.98349(13) 0.81616(14) 0.15437(13)
C17 C 0.98650(14) 0.88213(15) 0.13168(15)
H12 H 0.95680 0.91480 0.14050
C18 C 1.07692(18) 0.85178(18) 0.08240(18)
H13 H 1.10770 0.86360 0.05790
C19 C 0.82439(15) 0.67739(14) 0.03938(13)
C20 C 0.60527(14) 0.25839(15) 0.31428(15)
H14 H 0.60330 0.22050 0.33910
C21 C 0.49205(14) 0.23677(15) 0.37892(14)
H15 H 0.52590 0.20550 0.38580
C22 C 1.03301(16) 0.89952(17) 0.09624(16)
H16 H 1.03470 0.94390 0.08160
C23 C 1.00697(14) 0.53435(14) 0.13940(13)
C24 C 0.66299(14) 0.26954(14) 0.28992(14)
C25 C 0.75929(17) 0.20135(18) 0.26916(18)
H17 H 0.75180 0.21580 0.22910
C26 C 0.72302(18) 0.71200(18) -0.01780(17)
H18 H 0.67870 0.71970 -0.01990
C27 C 0.93322(13) 0.79314(14) 0.19192(13)
C28 C 0.92283(15) 0.60237(15) 0.40892(14)
H19 H 0.93520 0.58440 0.44740
C29 C 0.77584(13) 0.51286(13) 0.25780(12)
C30 C 0.71743(15) 0.46913(15) 0.08174(14)
C31 C 0.77702(13) 0.86850(14) 0.23465(13)
C32 C 0.71869(14) 0.22247(14) 0.30956(15)
C33 C 0.44038(16) 0.23154(17) 0.41118(16)
H20 H 0.44000 0.19720 0.44000
C34 C 0.7530(2) 0.72251(18) -0.06790(16)
H21 H 0.72890 0.73710 -0.10380
C35 C 1.03815(14) 0.58592(14) 0.38954(14)
C36 C 0.39801(17) 0.5360(2) 0.42840(18)
H22 H 0.37460 0.52370 0.45920
C37 C 0.78467(16) 0.16001(17) 0.38830(19)
H23 H 0.79360 0.14710 0.42870
C38 C 0.49398(13) 0.28851(14) 0.33605(13)
C39 C 0.70405(14) 0.67902(14) 0.22041(14)
H24 H 0.71700 0.72250 0.21020
C40 C 1.06854(19) 0.46149(18) 0.08227(16)
H25 H 1.07380 0.44090 0.04580
C41 C 0.66910(15) 0.35631(15) 0.44872(14)
C42 C 1.07513(18) 0.78652(18) 0.10495(19)
H26 H 1.10500 0.75410 0.09590
C43 C 0.54748(14) 0.47868(15) 0.36142(14)
C44 C 0.72698(13) 0.56847(13) 0.24492(12)
C45 C 0.73230(15) 0.20172(16) 0.36906(16)
H27 H 0.70570 0.21610 0.39670
C46 C 0.82786(17) 0.63253(16) 0.49660(14)
H28 H 0.86940 0.64840 0.51010
C47 C 0.73898(15) 0.85959(16) 0.27992(15)
H29 H 0.74520 0.82130 0.30480
C48 C 0.68122(17) 0.96327(18) 0.25186(18)
H30 H 0.64950 0.99500 0.25780
C49 C 0.37334(16) 0.59861(16) 0.06364(16)
H31 H 0.33370 0.61830 0.04860
C50 C 0.75849(16) 0.68998(16) 0.03593(15)
H32 H 0.73800 0.68360 0.06990
C51 C 0.96995(14) 0.61033(14) 0.37126(13)
C52 C 0.95112(13) 0.58055(13) 0.14624(13)
C53 C 0.48072(15) 0.56520(15) 0.04990(14)
H33 H 0.51330 0.56320 0.02550
C54 C 0.60685(14) 0.50606(15) 0.10279(14)
H34 H 0.60540 0.53600 0.07030
C55 C 0.44209(15) 0.54233(16) 0.14361(15)
H35 H 0.44870 0.52470 0.18270
C56 C 0.81153(16) 0.61251(15) 0.43690(14)
C57 C 0.44193(14) 0.33361(14) 0.32623(14)
H36 H 0.44200 0.36830 0.29780
C58 C 0.57873(15) 0.43298(15) 0.40447(15)
H37 H 0.55900 0.42280 0.43820
C59 C 0.55279(14) 0.50197(14) 0.13287(13)
C60 C 1.08232(16) 0.59270(16) 0.34912(15)
H38 H 1.06910 0.61250 0.31150
C61 C 0.38339(16) 0.57254(17) 0.12191(17)
H39 H 0.35080 0.57530 0.14630
C62 C 0.69153(17) 0.90692(19) 0.28893(17)
H40 H 0.66680 0.90050 0.32000
C63 C 0.79753(14) 0.40144(15) 0.28099(15)
H41 H 0.78390 0.35790 0.29030
C64 C 1.05943(16) 0.55585(16) 0.44552(15)
H42 H 1.03070 0.55070 0.47350
C65 C 0.85765(15) 0.62000(14) 0.39191(13)
C66 C 0.86029(14) 0.65103(14) 0.09751(13)
C67 C 0.66323(14) 0.46744(15) 0.11887(13)
C68 C 0.73627(17) 0.35600(18) 0.46244(17)
H43 H 0.76070 0.38570 0.44230
C69 C 0.45271(16) 0.4990(2) 0.41986(16)
H44 H 0.46600 0.46230 0.44510
C70 C 1.05127(15) 0.52056(15) 0.18998(14)
H45 H 1.04550 0.53960 0.22700
C71 C 0.78274(19) 0.62897(17) 0.53609(16)
H46 H 0.79370 0.64400 0.57570
C72 C 0.38911(16) 0.27716(16) 0.40087(16)
H47 H 0.35440 0.27370 0.42260
C73 C 1.02922(16) 0.76890(16) 0.14099(17)
H48 H 1.02880 0.72480 0.15660
C74 C 0.76572(14) 0.92583(14) 0.19724(14)
H49 H 0.79050 0.93260 0.16620
C75 C 1.11293(16) 0.44954(17) 0.13270(17)
H50 H 1.14870 0.42180 0.13030
C76 C 0.7222(2) 0.60357(18) 0.51757(17)
H51 H 0.69230 0.60090 0.54460
C77 C 0.66512(19) 0.26566(17) 0.52068(16)
H52 H 0.64100 0.23460 0.53990
C78 C 0.71803(15) 0.97251(16) 0.20592(17)
H53 H 0.71080 1.01030 0.18060
C79 C 0.88034(14) 0.47817(15) 0.26473(15)
H54 H 0.92370 0.48720 0.26240
C80 C 0.55094(13) 0.30035(14) 0.30373(13)
C81 C 1.10411(16) 0.47876(16) 0.18643(17)
H55 H 1.13380 0.47050 0.22080
C82 C 1.12255(18) 0.53372(16) 0.45986(16)
H56 H 1.13610 0.51380 0.49730
C83 C 1.16565(18) 0.54107(17) 0.41886(17)
H57 H 1.20820 0.52600 0.42860
C84 C 0.41163(19) 0.60767(19) 0.3458(2)
H58 H 0.39790 0.64430 0.32070
C85 C 0.82086(19) 0.4668(2) 0.01503(19)
H59 H 0.85520 0.46560 -0.00740
C86 C 1.14581(17) 0.57068(18) 0.36346(17)
H60 H 1.17480 0.57590 0.33580
C87 C 0.71808(17) 0.51167(18) 0.03192(16)
H61 H 0.68370 0.54140 0.02060
C88 C 0.37802(18) 0.5903(2) 0.3920(2)
H62 H 0.34170 0.61540 0.39850
C89 C 0.76962(19) 0.5101(2) -0.00100(18)
H63 H 0.76940 0.53870 -0.03430
C90 C 0.46603(18) 0.57093(18) 0.33638(19)
H64 H 0.48820 0.58280 0.30460
C91 C 0.74948(17) 0.58746(18) 0.41828(16)
H65 H 0.73760 0.57440 0.37820
C92 C 0.7055(2) 0.5819(2) 0.45856(19)
H66 H 0.66470 0.56360 0.44610
C93 C 0.77013(18) 0.4261(2) 0.09755(19)
H67 H 0.77110 0.39750 0.13090
C94 C 0.82341(18) 0.13778(18) 0.3476(2)
H68 H 0.85800 0.10870 0.36010
C95 C 0.7315(2) 0.26632(19) 0.53426(16)
H69 H 0.75220 0.23590 0.56270
C96 C 0.8210(2) 0.4253(2) 0.0644(2)
H70 H 0.85590 0.39620 0.07570
C97 C 0.76729(19) 0.3121(2) 0.50573(18)
H71 H 0.81210 0.31340 0.51550
C98 C 0.81129(19) 0.1583(2) 0.2886(2)
H72 H 0.83800 0.14350 0.26120
O12 O 0.82548(9) 0.76112(9) 0.25556(9)
Cl1 Cl 0.42730(7) 0.24409(7) 0.66113(7)
Cl2 Cl 0.43017(6) 0.12928(6) 0.58228(5)
Cl3 Cl 0.54673(8) 0.20557(9) 0.61921(9)
C99 C 0.47482(19) 0.1772(2) 0.63944(19)
H73 H 0.48540 0.14710 0.67450
Cl4 Cl 0.12673(5) 0.76833(5) 0.32905(6)
Cl5 Cl 0.01706(5) 0.85731(5) 0.32202(5)
Cl6 Cl 0.04638(7) 0.76517(6) 0.42316(6)
C100 C 0.04705(17) 0.77687(18) 0.34550(18)
H74 H 0.01990 0.74170 0.32330
#END

data_CSD_CIF_UMITUH
_audit_creation_date 2016-05-04
_audit_creation_method CSD-ConQuest-V1
_database_code_CSD UMITUH
_database_code_depnum_ccdc_archive 'CCDC 962685'
_chemical_formula_sum 'C102 H78 Dy2 N6 O12'
_chemical_formula_moiety
;
C98 H72 Dy2 N4 O12,2(C2 H3 N1)
;
_journal_coden_Cambridge 222
_journal_volume 45
_journal_year 2016
_journal_page_first 8790
_journal_name_full 'Dalton Trans. '
loop_
_publ_author_name
"Wen-Bin Sun"
"Bing Yan"
"Li-Hui Jia"
"Bing-Wu Wang"
"Qian Yang"
"Xin Cheng"
"Hong-Feng Li"
"Peng Chen"
"Zhe-Ming Wang"
"Song Gao"
_chemical_name_systematic
;
(\m-2,2'-bipyrimidine)-hexakis(1,3-diphenylpropane-1,3-dionato)-di-dysprosium 
acetonitrile solvate
;
_cell_volume   2179.665
_exptl_crystal_density_diffrn 1.449
_exptl_crystal_description 'block'
_diffrn_ambient_temperature 293
#These two values have been output from a single CSD field.
_refine_ls_R_factor_gt 0.0255
_refine_ls_wR_factor_gt 0.0255
_symmetry_cell_setting triclinic
_symmetry_space_group_name_H-M 'P -1'
_symmetry_Int_Tables_number 2
loop_
_symmetry_equiv_pos_site_id
_symmetry_equiv_pos_as_xyz
1 x,y,z
2 -x,-y,-z
_cell_length_a 13.3403(5)
_cell_length_b 13.7896(5)
_cell_length_c 15.0024(6)
_cell_angle_alpha 63.104(4)
_cell_angle_beta 69.918(4)
_cell_angle_gamma 64.260(4)
_cell_formula_units_Z 1
loop_
_atom_type_symbol
_atom_type_radius_bond
C 0.68
H 0.23
Dy 1.92
N 0.68
O 0.68
loop_
_atom_site_label
_atom_site_type_symbol
_atom_site_fract_x
_atom_site_fract_y
_atom_site_fract_z
Dy1 Dy 0.206872(8) 0.756073(9) 0.114735(8)
O1 O 0.07940(13) 0.67479(15) 0.24426(12)
O2 O 0.34222(13) 0.59959(14) 0.19798(12)
O3 O 0.27123(15) 0.90981(15) 0.04147(13)
O4 O 0.36016(13) 0.71167(15) -0.01062(13)
O5 O 0.14895(13) 0.66698(15) 0.05296(13)
O6 O 0.20584(14) 0.80476(15) 0.24306(13)
N1 N 0.12367(16) 0.90290(17) -0.05034(15)
N2 N -0.01426(16) 1.07654(17) -0.13049(15)
C1 C 0.1978(2) 0.9659(3) 0.3835(2)
H1 H 0.23280 1.01870 0.33430
C2 C 0.1321(2) 0.8096(3) 0.4333(2)
H2 H 0.12340 0.75600 0.41760
C3 C -0.0849(2) 0.6704(3) -0.0198(2)
H3 H -0.14300 0.68350 0.03400
C4 C -0.1354(2) 0.6101(3) 0.5211(2)
H4 H -0.13360 0.63250 0.57020
C5 C 0.6206(2) 0.3091(2) 0.4221(2)
H5 H 0.65990 0.25900 0.47530
C6 C 0.6531(2) 0.2878(2) 0.3329(2)
H6 H 0.71220 0.22130 0.32750
C7 C -0.1412(2) 0.5452(2) 0.3740(2)
H7 H -0.14380 0.52300 0.32500
C8 C 0.0941(2) 0.8096(3) 0.5318(2)
H8 H 0.05950 0.75680 0.58160
C9 C 0.2805(2) 0.9794(2) 0.0691(2)
C10 C 0.1828(2) 0.8889(2) 0.3578(2)
C11 C 0.5151(2) 0.8022(2) -0.1747(2)
H9 H 0.44660 0.85570 -0.15810
C12 C -0.0730(2) 0.6434(2) 0.4245(2)
H10 H -0.02920 0.68790 0.40950
C13 C 0.5293(2) 0.4054(2) 0.4316(2)
H11 H 0.50560 0.41870 0.49230
C14 C 0.7181(2) 0.6436(3) -0.2267(2)
H12 H 0.78540 0.59010 -0.24510
C15 C -0.0181(2) 0.6387(2) 0.1643(2)
H13 H -0.08340 0.62500 0.17170
C16 C 0.0258(2) 0.6503(2) -0.01578(19)
C17 C 0.00058(19) 0.6437(2) 0.24761(19)
C18 C 0.0418(2) 1.0663(2) -0.22122(19)
H14 H 0.01420 1.12220 -0.27980
C19 C -0.0743(2) 0.6116(2) 0.34947(19)
C20 C 0.1392(2) 0.9748(2) -0.22902(19)
H15 H 0.17780 0.96830 -0.29180
C21 C 0.5986(2) 0.3640(2) 0.2521(2)
H16 H 0.62220 0.34980 0.19180
C22 C 0.2165(2) 0.8873(2) 0.2514(2)
C23 C 0.0549(2) 0.6528(2) 0.07042(19)
C24 C 0.1772(2) 0.8938(2) -0.14135(19)
H17 H 0.24200 0.83070 -0.14500
C25 C 0.64695(19) 0.6082(2) -0.13507(19)
H18 H 0.66770 0.53180 -0.09110
C26 C 0.4734(2) 0.4815(2) 0.35154(19)
H19 H 0.41210 0.54600 0.35850
C27 C 0.50777(18) 0.4628(2) 0.26039(18)
C28 C 0.51007(19) 0.5716(2) 0.07545(18)
H20 H 0.58660 0.52850 0.06630
C29 C 0.54375(19) 0.6882(2) -0.10924(18)
C30 C 0.46482(18) 0.6550(2) -0.01027(18)
C31 C 0.02986(18) 0.99481(19) -0.05052(17)
C32 C 0.44750(18) 0.5483(2) 0.17472(18)
C33 C 0.3217(2) 1.0735(2) -0.0151(2)
C34 C 0.4226(4) 1.2070(3) -0.0812(3)
H21 H 0.46490 1.23880 -0.07130
C35 C 0.3992(4) 1.2446(3) -0.1757(3)
H22 H 0.42500 1.30200 -0.22950
C36 C 0.3372(3) 1.1970(3) -0.1909(3)
H23 H 0.32000 1.22330 -0.25470
C37 C 0.3840(3) 1.1225(3) -0.0005(3)
H24 H 0.39950 1.09830 0.06360
C38 C -0.1091(3) 0.6713(3) -0.1023(2)
H25 H -0.18330 0.68510 -0.10390
C39 C 0.0863(3) 0.6316(3) -0.1798(2)
H26 H 0.14410 0.61810 -0.23360
C40 C -0.0237(3) 0.6516(3) -0.1827(2)
H27 H -0.04010 0.65180 -0.23820
C41 C 0.5880(3) 0.8367(3) -0.2647(2)
H28 H 0.56880 0.91340 -0.30810
C42 C 0.1605(2) 0.9644(3) 0.4828(3)
H29 H 0.17150 1.01580 0.49960
C43 C 0.1079(2) 0.8882(3) 0.5559(2)
H30 H 0.08160 0.88920 0.62160
C44 C 0.3007(3) 1.1102(3) -0.1111(2)
H31 H 0.26160 1.07610 -0.12230
C45 C 0.6896(2) 0.7571(3) -0.2903(2)
H32 H 0.73860 0.78070 -0.35070
C46 C 0.1105(2) 0.6316(3) -0.0978(2)
H33 H 0.18470 0.61880 -0.09710
C47 C -0.2040(2) 0.5121(3) 0.4713(2)
H34 H -0.24870 0.46830 0.48670
C48 C -0.2007(2) 0.5435(3) 0.5450(2)
H35 H -0.24210 0.52020 0.61030
C49 C 0.2526(2) 0.9739(3) 0.1694(2)
H36 H 0.25860 1.03100 0.18220
N3 N 0.6681(3) 0.9681(3) -0.5637(3)
C50 C 0.6261(3) 0.9048(3) -0.5446(3)
C51 C 0.5700(3) 0.8227(4) -0.5178(4)
H37 H 0.50670 0.86010 -0.55500
H38 H 0.62350 0.76940 -0.54470
H39 H 0.54700 0.80440 -0.45370
N1A N -0.12367(16) 1.09710(17) 0.05034(15)
C20A C -0.1392(2) 1.0252(2) 0.22902(19)
H15A H -0.17780 1.03170 0.29180
C24A C -0.1772(2) 1.1062(2) 0.14135(19)
H17A H -0.24200 1.16930 0.14500
N2A N 0.01426(16) 0.92346(17) 0.13049(15)
C18A C -0.0418(2) 0.9337(2) 0.22122(19)
H14A H -0.01420 0.87780 0.27980
C31A C -0.02986(18) 1.00519(19) 0.05052(17)
Dy1A Dy -0.206872(8) 1.243927(9) -0.114735(8)
O1A O -0.07940(13) 1.32521(15) -0.24426(12)
O2A O -0.34222(13) 1.40041(14) -0.19798(12)
O3A O -0.27123(15) 1.09019(15) -0.04147(13)
O4A O -0.36016(13) 1.28833(15) 0.01062(13)
O5A O -0.14895(13) 1.33302(15) -0.05296(13)
O6A O -0.20584(14) 1.19524(15) -0.24306(13)
C1A C -0.1978(2) 1.0341(3) -0.3835(2)
H1A H -0.23280 0.98130 -0.33430
C2A C -0.1321(2) 1.1904(3) -0.4333(2)
H2A H -0.12340 1.24400 -0.41760
C3A C 0.0849(2) 1.3296(3) 0.0198(2)
H3A H 0.14300 1.31650 -0.03400
C4A C 0.1354(2) 1.3899(3) -0.5211(2)
H4A H 0.13360 1.36750 -0.57020
C5A C -0.6206(2) 1.6909(2) -0.4221(2)
H5A H -0.65990 1.74100 -0.47530
C6A C -0.6531(2) 1.7122(2) -0.3329(2)
H6A H -0.71220 1.77870 -0.32750
C7A C 0.1412(2) 1.4548(2) -0.3740(2)
H7A H 0.14380 1.47700 -0.32500
C8A C -0.0941(2) 1.1904(3) -0.5318(2)
H8A H -0.05950 1.24320 -0.58160
C9A C -0.2805(2) 1.0206(2) -0.0691(2)
C10A C -0.1828(2) 1.1111(2) -0.3578(2)
C11A C -0.5151(2) 1.1978(2) 0.1747(2)
H9A H -0.44660 1.14430 0.15810
C12A C 0.0730(2) 1.3566(2) -0.4245(2)
H10A H 0.02920 1.31210 -0.40950
C13A C -0.5293(2) 1.5946(2) -0.4316(2)
H11A H -0.50560 1.58130 -0.49230
C14A C -0.7181(2) 1.3564(3) 0.2267(2)
H12A H -0.78540 1.40990 0.24510
C15A C 0.0181(2) 1.3613(2) -0.1643(2)
H13A H 0.08340 1.37500 -0.17170
C16A C -0.0258(2) 1.3497(2) 0.01578(19)
C17A C -0.00058(19) 1.3563(2) -0.24761(19)
C19A C 0.0743(2) 1.3884(2) -0.34947(19)
C21A C -0.5986(2) 1.6360(2) -0.2521(2)
H16A H -0.62220 1.65020 -0.19180
C22A C -0.2165(2) 1.1127(2) -0.2514(2)
C23A C -0.0549(2) 1.3472(2) -0.07042(19)
C25A C -0.64695(19) 1.3918(2) 0.13507(19)
H18A H -0.66770 1.46820 0.09110
C26A C -0.4734(2) 1.5185(2) -0.35154(19)
H19A H -0.41210 1.45400 -0.35850
C27A C -0.50777(18) 1.5372(2) -0.26039(18)
C28A C -0.51007(19) 1.4284(2) -0.07545(18)
H20A H -0.58660 1.47150 -0.06630
C29A C -0.54375(19) 1.3118(2) 0.10924(18)
C30A C -0.46482(18) 1.3450(2) 0.01027(18)
C32A C -0.44750(18) 1.4517(2) -0.17472(18)
C33A C -0.3217(2) 0.9265(2) 0.0151(2)
C34A C -0.4226(4) 0.7930(3) 0.0812(3)
H21A H -0.46490 0.76120 0.07130
C35A C -0.3992(4) 0.7554(3) 0.1757(3)
H22A H -0.42500 0.69800 0.22950
C36A C -0.3372(3) 0.8030(3) 0.1909(3)
H23A H -0.32000 0.77670 0.25470
C37A C -0.3840(3) 0.8775(3) 0.0005(3)
H24A H -0.39950 0.90170 -0.06360
C38A C 0.1091(3) 1.3287(3) 0.1023(2)
H25A H 0.18330 1.31490 0.10390
C39A C -0.0863(3) 1.3684(3) 0.1798(2)
H26A H -0.14410 1.38190 0.23360
C40A C 0.0237(3) 1.3484(3) 0.1827(2)
H27A H 0.04010 1.34820 0.23820
C41A C -0.5880(3) 1.1633(3) 0.2647(2)
H28A H -0.56880 1.08660 0.30810
C42A C -0.1605(2) 1.0356(3) -0.4828(3)
H29A H -0.17150 0.98420 -0.49960
C43A C -0.1079(2) 1.1118(3) -0.5559(2)
H30A H -0.08160 1.11080 -0.62160
C44A C -0.3007(3) 0.8898(3) 0.1111(2)
H31A H -0.26160 0.92390 0.12230
C45A C -0.6896(2) 1.2429(3) 0.2903(2)
H32A H -0.73860 1.21930 0.35070
C46A C -0.1105(2) 1.3684(3) 0.0978(2)
H33A H -0.18470 1.38120 0.09710
C47A C 0.2040(2) 1.4879(3) -0.4713(2)
H34A H 0.24870 1.53170 -0.48670
C48A C 0.2007(2) 1.4565(3) -0.5450(2)
H35A H 0.24210 1.47980 -0.61030
C49A C -0.2526(2) 1.0261(3) -0.1694(2)
H36A H -0.25860 0.96900 -0.18220
#END
