
#######################################################################
#
#                 Cambridge Crystallographic Data Centre
#                                CCDC
#
#######################################################################
#
# If this CIF has been generated from an entry in the Cambridge
# Structural Database, then it will include bibliographic, chemical,
# crystal, experimental, refinement or atomic coordinate data resulting
# from the CCDC's data processing and validation procedures.
#
#######################################################################

data_CSD_CIF_IRUBII
_audit_creation_date 2016-08-12
_audit_creation_method CSD-ConQuest-V1
_database_code_CSD IRUBII
_database_code_depnum_ccdc_archive 'CCDC 1479731'
_chemical_formula_sum 'C62 H96 Er2 N4 O12'
_chemical_formula_moiety
;
C62 H96 Er2 N4 O12
;
_journal_coden_Cambridge 440
_journal_volume 40
_journal_year 2016
_journal_page_first 8251
_journal_name_full 'New J.Chem. '
loop_
_publ_author_name
"P.Martin-Ramos"
"L.C.J.Pereira"
"J.T.Coutinho"
"F.Koprowiak"
"H.Bolvin"
"V.Lavin"
"I.R.Martin"
"J.Martin-Gil"
"M.Ramos Silva"
_chemical_name_systematic
;
(\m-2,2'-bipyrimidine)-hexakis(4-oxynon-3-en-2-onato)-di-erbium(iii)
;
_cell_volume   3436.223
_exptl_crystal_colour 'yellow'
_exptl_crystal_density_diffrn 1.376
_exptl_crystal_description 'plate'
_diffrn_ambient_temperature 293
_refine_special_details
;
C6AA,C7AA,C8AA,C9AA and C6AB,C7AB,C8AB,C9AB disordered over two sites with 
occupancies 0.526:0.474; C6CA,C7CA,C8CA,C9CA and C6CB,C7CB,C8CB,C9CB 
disordered over two sites with occupancies 0.551:0.449.
;
#These two values have been output from a single CSD field.
_refine_ls_R_factor_gt 0.054
_refine_ls_wR_factor_gt 0.054
_symmetry_cell_setting monoclinic
_symmetry_space_group_name_H-M 'P 21/c'
_symmetry_Int_Tables_number 14
loop_
_symmetry_equiv_pos_site_id
_symmetry_equiv_pos_as_xyz
1 x,y,z
2 -x,1/2+y,1/2-z
3 -x,-y,-z
4 x,-1/2-y,-1/2+z
_cell_length_a 16.7455(6)
_cell_length_b 13.1161(4)
_cell_length_c 16.7312(6)
_cell_angle_alpha 90
_cell_angle_beta 110.758(2)
_cell_angle_gamma 90
_cell_formula_units_Z 2
loop_
_atom_type_symbol
_atom_type_radius_bond
C 0.68
H 0.23
Er 1.89
N 0.68
O 0.68
loop_
_atom_site_label
_atom_site_type_symbol
_atom_site_fract_x
_atom_site_fract_y
_atom_site_fract_z
Er1 Er 0.067526(8) 0.723511(9) 0.446370(7)
O1 O -0.01320(12) 0.75251(13) 0.30479(11)
O2 O -0.07264(12) 0.71880(15) 0.43598(12)
O3 O 0.05776(12) 0.83802(14) 0.54528(11)
O4 O 0.12927(11) 0.86953(14) 0.42111(10)
O5 O 0.15264(11) 0.65517(16) 0.37904(11)
O6 O 0.19939(11) 0.70321(16) 0.55155(11)
N1 N 0.05684(13) 0.60408(15) 0.56470(12)
N2 N -0.00766(13) 0.45746(15) 0.59861(11)
C1 C 0.01839(17) 0.4899(2) 0.68030(14)
H1 H 0.00490 0.45080 0.72010
C2 C 0.06356(17) 0.5773(2) 0.70688(15)
H2 H 0.08100 0.59830 0.76360
C3 C 0.08227(18) 0.6330(2) 0.64682(15)
H3 H 0.11360 0.69290 0.66340
C4 C 0.01270(15) 0.51644(18) 0.54528(13)
C5 C -0.1147(2) 0.7718(3) 0.16429(19)
H4 H -0.11770 0.84410 0.15450
H5 H -0.16910 0.74160 0.13320
H6 H -0.07190 0.74290 0.14520
C6 C -0.0913(2) 0.7509(2) 0.26040(18)
C7 C -0.15576(19) 0.7345(3) 0.2908(2)
H7 H -0.21130 0.73140 0.25160
C8 C -0.14318(18) 0.7220(2) 0.37797(19)
C9 C -0.2229(2) 0.7131(3) 0.4029(3)
H8 H -0.22210 0.76850 0.44160
H9 H -0.27310 0.72210 0.35190
C10 C 0.0683(2) 0.9710(3) 0.64254(19)
H10 H 0.01280 1.00190 0.62060
H11 H 0.11020 1.02180 0.67050
H12 H 0.06860 0.91860 0.68270
C11 C 0.0895(2) 0.9247(2) 0.56972(17)
C12 C 0.1408(2) 0.9771(2) 0.53398(18)
H13 H 0.16550 1.03730 0.56100
C13 C 0.15862(19) 0.9499(2) 0.46392(18)
C14 C 0.2116(2) 1.0157(3) 0.4306(2)
H14 H 0.17560 1.04410 0.37620
H15 H 0.23330 1.07210 0.46990
C15 C 0.3458(2) 0.7110(4) 0.6354(3)
H16 H 0.34320 0.77790 0.65740
H17 H 0.39970 0.70210 0.62790
H18 H 0.34020 0.66080 0.67490
C16 C 0.2731(2) 0.6980(3) 0.5491(2)
C17 C 0.29210(19) 0.6835(3) 0.4770(2)
H19 H 0.34910 0.68790 0.48200
C18 C 0.2324(2) 0.6625(3) 0.39680(19)
C19 C 0.2650(2) 0.6450(3) 0.3243(2)
H20 H 0.21710 0.64870 0.27070
H21 H 0.30400 0.69980 0.32450
C20 C 0.28321(19) 0.9640(3) 0.4187(2)
H22 H 0.26230 0.89820 0.39330
H23 H 0.32440 0.95050 0.47530
C21 C 0.3322(2) 1.0099(3) 0.3670(2)
H24 H 0.36470 0.95710 0.35160
H25 H 0.29260 1.03930 0.31480
C22 C 0.39010(19) 1.0890(3) 0.4174(2)
H26 H 0.42620 1.06130 0.47200
H27 H 0.35740 1.14500 0.42800
C23 C 0.4449(2) 1.1268(5) 0.3680(2)
H28 H 0.50370 1.12800 0.40500
H29 H 0.42720 1.19440 0.34700
H30 H 0.43830 1.08200 0.32070
C24 C -0.23157(18) 0.6154(6) 0.4441(2)
H31 H -0.17840 0.60210 0.49080
H32 H -0.23980 0.56100 0.40270
C25 C -0.30326(16) 0.6116(7) 0.4784(2)
H33 H -0.30130 0.54710 0.50740
H34 H -0.29570 0.66570 0.51990
C26 C -0.38880(16) 0.6230(7) 0.4087(2)
H35 H -0.40070 0.56320 0.37230
H36 H -0.38800 0.68190 0.37390
C27 C -0.4577(2) 0.636(1) 0.4458(3)
H37 H -0.47810 0.57020 0.45480
H38 H -0.50390 0.67450 0.40690
H39 H -0.43510 0.67140 0.49930
C28 C 0.3070(2) 0.5515(6) 0.32773(19)
H40 H 0.26750 0.49670 0.32580
H41 H 0.35400 0.54690 0.38200
C29 C 0.3415(2) 0.5361(3) 0.2563(2)
H42 H 0.29470 0.54100 0.20190
H43 H 0.38150 0.59040 0.25850
C30 C 0.3854(2) 0.4353(3) 0.26089(19)
H44 H 0.43420 0.43160 0.31380
H45 H 0.34640 0.38090 0.26140
C31 C 0.4146(3) 0.4204(7) 0.1871(2)
H46 H 0.42250 0.34900 0.17980
H47 H 0.46780 0.45550 0.19810
H48 H 0.37250 0.44720 0.13620
C32? C -0.24200(18) 0.6108(6) 0.4119(3)
H49? H -0.19630 0.58300 0.46070
H50? H -0.24150 0.57420 0.36170
C33? C -0.32511(16) 0.5885(3) 0.4236(2)
H51? H -0.36690 0.57730 0.36690
H52? H -0.31780 0.52370 0.45320
C34? C -0.36598(16) 0.6590(3) 0.4683(2)
H53? H -0.37880 0.72300 0.43730
H54? H -0.32540 0.67310 0.52500
C35? C -0.4467(2) 0.6179(6) 0.4761(4)
H55? H -0.49460 0.65640 0.43990
H56? H -0.44350 0.62350 0.53440
H57? H -0.45340 0.54760 0.45910
C36? C 0.2866(2) 0.5319(6) 0.3158(2)
H58? H 0.32160 0.50850 0.37230
H59? H 0.23340 0.49420 0.29960
C37? C 0.3310(2) 0.4998(3) 0.2554(2)
H60? H 0.28600 0.49170 0.20010
H61? H 0.36390 0.55870 0.25020
C38? C 0.38916(18) 0.4099(3) 0.2645(3)
H62? H 0.42070 0.40660 0.32550
H63? H 0.35050 0.35210 0.25210
C39? C 0.4540(2) 0.3798(8) 0.2262(3)
H64? H 0.42590 0.36660 0.16630
H65? H 0.48330 0.31940 0.25390
H66? H 0.49450 0.43410 0.23380
N1B N -0.05684(13) 0.39592(15) 0.43530(12)
C1B C -0.01839(17) 0.5101(2) 0.31970(14)
H1B H -0.00490 0.54920 0.27990
C2B C -0.06356(17) 0.4227(2) 0.29312(15)
H2B H -0.08100 0.40170 0.23640
C3B C -0.08227(18) 0.3670(2) 0.35318(15)
H3B H -0.11360 0.30710 0.33660
C4B C -0.01270(15) 0.48356(18) 0.45472(13)
N2B N 0.00766(13) 0.54254(15) 0.40139(11)
Er1B Er -0.067526(8) 0.276489(9) 0.553630(7)
O1B O 0.01320(12) 0.24749(13) 0.69521(11)
O2B O 0.07264(12) 0.28120(15) 0.56402(12)
O3B O -0.05776(12) 0.16198(14) 0.45472(11)
O4B O -0.12927(11) 0.13047(14) 0.57889(10)
O5B O -0.15264(11) 0.34483(16) 0.62096(11)
O6B O -0.19939(11) 0.29679(16) 0.44845(11)
C5B C 0.1147(2) 0.2282(3) 0.83571(19)
H4B H 0.11770 0.15590 0.84550
H5B H 0.16910 0.25840 0.86680
H6B H 0.07190 0.25710 0.85480
C6B C 0.0913(2) 0.2491(2) 0.73960(18)
C7B C 0.15576(19) 0.2655(3) 0.7092(2)
H7B H 0.21130 0.26860 0.74840
C8B C 0.14318(18) 0.2780(2) 0.62203(19)
C9B C 0.2229(2) 0.2869(3) 0.5971(3)
H8B H 0.22210 0.23150 0.55840
H9B H 0.27310 0.27790 0.64810
C10B C -0.0683(2) 0.0290(3) 0.35746(19)
H10B H -0.01280 -0.00190 0.37940
H11B H -0.11020 -0.02180 0.32950
H12B H -0.06860 0.08140 0.31730
C11B C -0.0895(2) 0.0753(2) 0.43028(17)
C12B C -0.1408(2) 0.0229(2) 0.46602(18)
H13B H -0.16550 -0.03730 0.43900
C13B C -0.15862(19) 0.0501(2) 0.53608(18)
C14B C -0.2116(2) -0.0157(3) 0.5694(2)
H14B H -0.17560 -0.04410 0.62380
H15B H -0.23330 -0.07210 0.53010
C15B C -0.3458(2) 0.2890(4) 0.3646(3)
H16B H -0.34320 0.22210 0.34260
H17B H -0.39970 0.29790 0.37210
H18B H -0.34020 0.33920 0.32510
C16B C -0.2731(2) 0.3020(3) 0.4509(2)
C17B C -0.29210(19) 0.3165(3) 0.5230(2)
H19B H -0.34910 0.31210 0.51800
C18B C -0.2324(2) 0.3375(3) 0.60320(19)
C19B C -0.2650(2) 0.3550(3) 0.6757(2)
H20B H -0.21710 0.35130 0.72930
H21B H -0.30400 0.30020 0.67550
C20B C -0.28321(19) 0.0360(3) 0.5813(2)
H22B H -0.26230 0.10180 0.60670
H23B H -0.32440 0.04950 0.52470
C21B C -0.3322(2) -0.0099(3) 0.6330(2)
H24B H -0.36470 0.04290 0.64840
H25B H -0.29260 -0.03930 0.68520
C22B C -0.39010(19) -0.0890(3) 0.5826(2)
H26B H -0.42620 -0.06130 0.52800
H27B H -0.35740 -0.14500 0.57200
C23B C -0.4449(2) -0.1268(5) 0.6320(2)
H28B H -0.50370 -0.12800 0.59500
H29B H -0.42720 -0.19440 0.65300
H30B H -0.43830 -0.08200 0.67930
C24B C 0.23157(18) 0.3846(6) 0.5559(2)
H31B H 0.17840 0.39790 0.50920
H32B H 0.23980 0.43900 0.59730
C25B C 0.30326(16) 0.3884(7) 0.5216(2)
H33B H 0.30130 0.45290 0.49260
H34B H 0.29570 0.33430 0.48010
C26B C 0.38880(16) 0.3770(7) 0.5913(2)
H35B H 0.40070 0.43680 0.62770
H36B H 0.38800 0.31810 0.62610
C27B C 0.4577(2) 0.364(1) 0.5542(3)
H37B H 0.47810 0.42980 0.54520
H38B H 0.50390 0.32550 0.59310
H39B H 0.43510 0.32860 0.50070
C28B C -0.3070(2) 0.4485(6) 0.67227(19)
H40B H -0.26750 0.50330 0.67420
H41B H -0.35400 0.45310 0.61800
C29B C -0.3415(2) 0.4639(3) 0.7437(2)
H42B H -0.29470 0.45900 0.79810
H43B H -0.38150 0.40960 0.74150
C30B C -0.3854(2) 0.5647(3) 0.73911(19)
H44B H -0.43420 0.56840 0.68620
H45B H -0.34640 0.61910 0.73860
C31B C -0.4146(3) 0.5796(7) 0.8129(2)
H46B H -0.42250 0.65100 0.82020
H47B H -0.46780 0.54450 0.80190
H48B H -0.37250 0.55280 0.86380
#END

data_CSD_CIF_ACPNEU
_audit_creation_date 1972-12-21
_audit_creation_method CSD-ConQuest-V1
_database_code_CSD ACPNEU
_database_code_depnum_ccdc_archive 'CCDC 1100950'
_chemical_formula_sum 'C27 H29 Eu1 N2 O6'
_chemical_formula_moiety
;
C27 H29 Eu1 N2 O6
;
_journal_coden_Cambridge 42
_journal_volume 34
_journal_year 1972
_journal_page_first 501
_journal_name_full 'J.Inorg.Nucl.Chem. '
loop_
_publ_author_name
"W.H.Watson"
"R.J.Williams"
"N.R.Stemple"
_chemical_name_systematic
;
tris(Acetylacetonato)-(1,10-phenanthroline)-europium(iii)
;
_cell_volume   3054.904
_exptl_crystal_density_diffrn 1.37
_diffrn_ambient_temperature ?
_diffrn_special_details
;
The study was carried out at room temperature,in the range 283-303K

;
#These two values have been output from a single CSD field.
_refine_ls_R_factor_gt 0.065
_refine_ls_wR_factor_gt 0.065
_symmetry_cell_setting monoclinic
_symmetry_space_group_name_H-M 'P 21/c'
_symmetry_Int_Tables_number 14
loop_
_symmetry_equiv_pos_site_id
_symmetry_equiv_pos_as_xyz
1 x,y,z
2 -x,1/2+y,1/2-z
3 -x,-y,-z
4 x,-1/2-y,-1/2+z
_cell_length_a 9.670(8)
_cell_length_b 21.339(5)
_cell_length_c 16.497(5)
_cell_angle_alpha 90
_cell_angle_beta 116.18(17)
_cell_angle_gamma 90
_cell_formula_units_Z 4
loop_
_atom_type_symbol
_atom_type_radius_bond
C 0.68
Eu 1.99
N 0.68
O 0.68
loop_
_atom_site_label
_atom_site_type_symbol
_atom_site_fract_x
_atom_site_fract_y
_atom_site_fract_z
C1 C 0.11480 -0.23240 -0.04810
C2 C -0.12010 -0.12010 0.15950
C3 C -0.15690 -0.18470 0.03650
C4 C -0.09330 -0.21350 -0.01490
C5 C 0.01350 -0.26680 -0.13200
C6 C 0.40910 -0.29450 0.15590
C7 C 0.30050 -0.33120 0.16620
C8 C 0.18700 -0.30960 0.18720
C9 C 0.54060 -0.32390 0.13410
C10 C 0.06800 -0.35740 0.19610
C11 C -0.13410 -0.27370 -0.15200
C12 C 0.28130 -0.05360 0.01230
C13 C 0.24510 0.00090 0.04250
C14 C 0.18950 0.00160 0.11140
C15 C 0.31690 -0.04980 -0.07290
C16 C 0.14910 0.06820 0.14240
C17 C -0.20630 -0.24770 -0.09770
C18 C 0.32350 -0.09470 0.36730
C19 C 0.45760 -0.06790 0.38110
C20 C 0.53070 -0.07910 0.32110
C21 C 0.24130 -0.07590 0.42890
C22 C 0.69100 -0.04200 0.35460
C23 C -0.36650 -0.25430 -0.11650
C24 C -0.41650 -0.22660 -0.06100
C25 C -0.31630 -0.18970 0.01650
C26 C -0.36970 -0.15940 0.07250
C27 C -0.27340 -0.12390 0.14450
Eu1 Eu 0.24128 -0.15400 0.16044
N1 N 0.05750 -0.20900 0.00650
N2 N -0.05810 -0.15010 0.11000
O1 O 0.40940 -0.23370 0.15020
O2 O 0.16790 -0.25190 0.20010
O3 O 0.28810 -0.10870 0.04470
O4 O 0.17470 -0.04700 0.15290
O5 O 0.24580 -0.13390 0.30350
O6 O 0.48970 -0.11430 0.25570
#END

data_CSD_CIF_ACPNEU01
_audit_creation_date 1980-11-04
_audit_creation_method CSD-ConQuest-V1
_database_code_CSD ACPNEU01
_chemical_formula_sum 'C27 H29 Eu1 N2 O6'
_chemical_formula_moiety
;
C27 H29 Eu1 N2 O6
;
_journal_coden_Cambridge 51
_journal_volume 8
_journal_year 1968
_journal_page_first 117
_journal_name_full 'Z.Chem. '
loop_
_publ_author_name
"W.Schmidt"
"E.Butter"
_chemical_name_systematic
;
tris(Acetylacetonato)-(1,10-phenanthroline)-europium(iii)
;
_cell_volume   2916.292
_exptl_crystal_density_diffrn 1.43
_exptl_special_details
;
No information on connectivity available

;
_diffrn_ambient_temperature ?
_diffrn_special_details
;
The study was carried out at room temperature,in the range 283-303K

;
_symmetry_cell_setting monoclinic
_symmetry_space_group_name_H-M 'P 21/n'
_symmetry_Int_Tables_number 14
_cell_length_a 14.6(1)
_cell_length_b 21.1(1)
_cell_length_c 9.59(1)
_cell_angle_alpha 90
_cell_angle_beta 99.2(5)
_cell_angle_gamma 90
_cell_formula_units_Z 4
#END

data_CSD_CIF_ALISUK
_audit_creation_date 2011-03-31
_audit_creation_method CSD-ConQuest-V1
_database_code_CSD ALISUK
_database_code_depnum_ccdc_archive 'CCDC 777692'
_chemical_formula_sum 'C27 H27 N4 O6 S1 Tb1'
_chemical_formula_moiety
;
C27 H27 N4 O6 S1 Tb1
;
_journal_coden_Cambridge 155
_journal_volume 365
_journal_year 2011
_journal_page_first 152
_journal_name_full 'Inorg.Chim.Acta '
loop_
_publ_author_name
"H.Gallardo"
"G.Conte"
"A.J.Bortoluzzi"
"I.H.Bechtold"
"A.Pereira"
"W.G.Quirino"
"C.Legnani"
"M.Cremona"
_chemical_name_systematic
;
tris(Acetylacetonato)-([1,2,5]thiadiazolo[3,4-f][1,10]phenanthroline)-terbium(
iii)
;
_cell_volume   1400.293
_exptl_crystal_colour 'colorless'
_exptl_crystal_density_diffrn 1.647
_exptl_crystal_description 'prism'
_diffrn_ambient_temperature 293
#These two values have been output from a single CSD field.
_refine_ls_R_factor_gt 0.0208
_refine_ls_wR_factor_gt 0.0208
_symmetry_cell_setting triclinic
_symmetry_space_group_name_H-M 'P -1'
_symmetry_Int_Tables_number 2
loop_
_symmetry_equiv_pos_site_id
_symmetry_equiv_pos_as_xyz
1 x,y,z
2 -x,-y,-z
_cell_length_a 9.464(3)
_cell_length_b 9.531(1)
_cell_length_c 16.012(1)
_cell_angle_alpha 94.047(1)
_cell_angle_beta 99.444(1)
_cell_angle_gamma 99.003(2)
_cell_formula_units_Z 2
loop_
_atom_type_symbol
_atom_type_radius_bond
C 0.68
H 0.23
N 0.68
O 0.68
S 1.02
Tb 1.94
loop_
_atom_site_label
_atom_site_type_symbol
_atom_site_fract_x
_atom_site_fract_y
_atom_site_fract_z
Tb1 Tb 0.227857(16) 0.050061(14) 0.767583(9)
S1 S -0.48478(11) -0.57285(11) 0.62796(8)
N1 N -0.3133(3) -0.5852(3) 0.6425(2)
C1 C -0.2412(4) -0.4522(3) 0.6683(2)
C2 C -0.0849(3) -0.4137(3) 0.6884(2)
C3 C 0.0104(4) -0.5117(3) 0.6854(2)
H1 H -0.02570 -0.60860 0.67220
C4 C 0.1568(4) -0.4635(3) 0.7020(2)
H2 H 0.22180 -0.52700 0.70030
C5 C 0.2070(4) -0.3180(3) 0.7214(2)
H3 H 0.30680 -0.28600 0.73150
N2 N 0.1192(3) -0.2213(3) 0.72640(16)
C6 C -0.0254(3) -0.2681(3) 0.71022(18)
C7 C -0.1199(3) -0.1608(3) 0.71441(18)
N3 N -0.0540(3) -0.0222(2) 0.73379(16)
C8 C -0.1387(4) 0.0761(3) 0.7396(2)
H4 H -0.09400 0.17090 0.75310
C9 C -0.2888(4) 0.0459(4) 0.7269(2)
H5 H -0.34300 0.11850 0.73230
C10 C -0.3561(4) -0.0930(4) 0.7060(2)
H6 H -0.45690 -0.11640 0.69720
C11 C -0.2717(3) -0.1988(3) 0.69824(19)
C12 C -0.3322(3) -0.3492(3) 0.6737(2)
N4 N -0.4737(3) -0.4020(3) 0.6522(2)
C13 C 0.1237(5) 0.4539(4) 0.9122(3)
H7 H 0.02660 0.43200 0.88020
H8 H 0.16140 0.55320 0.91110
H9 H 0.12270 0.43340 0.96990
C14 C 0.2186(4) 0.3645(3) 0.8733(2)
O1 O 0.1546(2) 0.2479(2) 0.83187(15)
C15 C 0.3671(4) 0.4135(4) 0.8832(2)
H10 H 0.40430 0.49810 0.91770
C16 C 0.4650(4) 0.3464(3) 0.8457(2)
O2 O 0.4311(3) 0.2310(2) 0.79814(16)
C17 C 0.6228(4) 0.4156(4) 0.8601(3)
H11 H 0.68260 0.34320 0.85850
H12 H 0.64790 0.47060 0.91470
H13 H 0.63840 0.47720 0.81640
C18 C 0.5792(4) -0.1808(4) 0.9123(3)
H14 H 0.57640 -0.25810 0.86990
H15 H 0.59440 -0.21390 0.96780
H16 H 0.65720 -0.10530 0.90850
C19 C 0.4375(4) -0.1260(3) 0.8977(2)
O3 O 0.4131(2) -0.0597(2) 0.83268(14)
C20 C 0.3400(4) -0.1528(4) 0.9538(2)
H17 H 0.36690 -0.20470 0.99910
C21 C 0.2060(4) -0.1079(3) 0.9472(2)
O4 O 0.1574(3) -0.0328(3) 0.89094(15)
C22 C 0.1095(6) -0.1506(5) 1.0108(3)
H18 H 0.09840 -0.06690 1.04450
H19 H 0.15300 -0.21390 1.04730
H20 H 0.01590 -0.19810 0.98120
C23 C 0.0786(6) 0.2611(5) 0.5167(3)
H21 H -0.00970 0.27460 0.53580
H22 H 0.05670 0.22120 0.45830
H23 H 0.14230 0.35130 0.52150
C24 C 0.1519(4) 0.1607(4) 0.5706(2)
O5 O 0.1485(3) 0.1738(2) 0.64891(14)
C25 C 0.2188(5) 0.0614(4) 0.5306(2)
H24 H 0.21050 0.05830 0.47180
C26 C 0.2966(4) -0.0330(4) 0.5718(2)
O6 O 0.3207(2) -0.0363(2) 0.65131(14)
C27 C 0.3555(6) -0.1435(5) 0.5203(3)
H25 H 0.45970 -0.12140 0.53000
H26 H 0.31820 -0.14240 0.46090
H27 H 0.32570 -0.23650 0.53740
#END

data_CSD_CIF_BOLRUR
_audit_creation_date 2014-10-02
_audit_creation_method CSD-ConQuest-V1
_database_code_CSD BOLRUR
_database_code_depnum_ccdc_archive 'CCDC 1007462'
_chemical_formula_sum 'C39 H39 Dy1 N4 O7'
_chemical_formula_moiety
;
C37 H33 Dy1 N4 O6,C2 H6 O1
;
_journal_coden_Cambridge 222
_journal_volume 43
_journal_year 2014
_journal_page_first 16659
_journal_name_full 'Dalton Trans. '
loop_
_publ_author_name
"Gong-Jun Chen"
"Yang Zhou"
"Guo-Xia Jin"
"Yu-Bin Dong"
_chemical_name_systematic
;
(benzo[i]dipyrido[3,2-a:2',3'-c]phenazine)-tris(acetyl acetonato)-dysprosium 
ethanol solvate
;
_cell_volume   1774.795
_exptl_crystal_colour 'red'
_exptl_crystal_density_diffrn 1.567
_exptl_crystal_description 'prism'
_diffrn_ambient_temperature 293
#These two values have been output from a single CSD field.
_refine_ls_R_factor_gt 0.048
_refine_ls_wR_factor_gt 0.048
_symmetry_cell_setting triclinic
_symmetry_space_group_name_H-M 'P -1'
_symmetry_Int_Tables_number 2
loop_
_symmetry_equiv_pos_site_id
_symmetry_equiv_pos_as_xyz
1 x,y,z
2 -x,-y,-z
_cell_length_a 10.4228(12)
_cell_length_b 12.4496(14)
_cell_length_c 14.2131(10)
_cell_angle_alpha 103.621(8)
_cell_angle_beta 93.468(8)
_cell_angle_gamma 96.219(9)
_cell_formula_units_Z 2
loop_
_atom_type_symbol
_atom_type_radius_bond
C 0.68
H 0.23
Dy 1.92
N 0.68
O 0.68
loop_
_atom_site_label
_atom_site_type_symbol
_atom_site_fract_x
_atom_site_fract_y
_atom_site_fract_z
Dy1 Dy 0.90581(2) 0.217539(19) 0.340016(16)
O1 O 0.6929(3) 0.1944(3) 0.3853(2)
O2 O 0.9142(3) 0.3066(3) 0.5024(2)
O3 O 1.0529(3) 0.1332(3) 0.4176(2)
O4 O 0.8371(3) 0.0272(3) 0.2891(2)
O5 O 1.0919(3) 0.3463(3) 0.3528(2)
O6 O 1.0184(3) 0.1542(3) 0.2061(2)
N1 N 0.7540(3) 0.2111(3) 0.1897(3)
N2 N 0.8107(3) 0.4001(3) 0.3306(3)
N3 N 0.4170(4) 0.3677(3) 0.0410(3)
N4 N 0.4744(4) 0.5652(3) 0.1912(2)
C1 C 0.8438(5) 0.4948(4) 0.3983(3)
H1 H 0.90980 0.49720 0.44610
C2 C 0.7847(5) 0.5903(4) 0.4011(3)
H2 H 0.81270 0.65540 0.44860
C3 C 0.6848(4) 0.5872(4) 0.3331(3)
H3 H 0.64350 0.64990 0.33420
C4 C 0.6455(4) 0.4878(4) 0.2616(3)
C5 C 0.7123(4) 0.3973(4) 0.2624(3)
C6 C 0.6818(4) 0.2938(4) 0.1865(3)
C7 C 0.7301(5) 0.1197(4) 0.1170(4)
H4 H 0.78070 0.06260 0.11730
C8 C 0.6352(5) 0.1045(4) 0.0414(4)
H5 H 0.62240 0.03880 -0.00730
C9 C 0.5611(5) 0.1870(4) 0.0396(3)
H6 H 0.49550 0.17770 -0.01010
C10 C 0.5833(4) 0.2858(4) 0.1121(3)
C11 C 0.5094(4) 0.3789(4) 0.1118(3)
C12 C 0.5391(4) 0.4801(4) 0.1863(3)
C13 C 0.3036(5) 0.6427(4) 0.1201(3)
H7 H 0.32140 0.70710 0.17000
C14 C 0.2519(4) 0.4497(4) -0.0312(3)
H8 H 0.23520 0.38600 -0.08190
C15 C 0.3769(4) 0.5555(4) 0.1191(3)
C16 C 0.3499(4) 0.4553(4) 0.0425(3)
C17 C 0.2038(5) 0.6354(4) 0.0477(3)
C18 C 0.1797(5) 0.5359(4) -0.0305(3)
C19 C 0.0786(5) 0.5320(5) -0.1054(3)
H9 H 0.06180 0.46910 -0.15690
C20 C 0.1259(5) 0.7215(5) 0.0485(4)
H10 H 0.13910 0.78520 0.09950
C21 C 0.0311(5) 0.7124(5) -0.0247(4)
H11 H -0.01940 0.76990 -0.02350
C22 C 0.0091(5) 0.6149(5) -0.1033(4)
H12 H -0.05470 0.60990 -0.15330
C23 C 0.4935(5) 0.1953(6) 0.4569(5)
H13 H 0.45590 0.20520 0.39660
H14 H 0.45880 0.24290 0.51010
H15 H 0.47330 0.11910 0.45950
C24 C 0.6387(5) 0.2249(4) 0.4637(4)
C25 C 0.7043(5) 0.2794(4) 0.5529(4)
H16 H 0.65600 0.29300 0.60640
C26 C 0.8372(5) 0.3155(4) 0.5686(3)
C27 C 0.8965(5) 0.3712(4) 0.6704(3)
H17 H 0.97250 0.33830 0.68400
H18 H 0.83490 0.36130 0.71620
H19 H 0.91960 0.44930 0.67580
C28 C 1.1973(5) 0.0182(5) 0.4660(4)
H20 H 1.23850 0.08870 0.50490
H21 H 1.25850 -0.01810 0.42590
H22 H 1.16660 -0.02760 0.50770
C29 C 1.0849(5) 0.0365(4) 0.4026(4)
C30 C 1.0185(5) -0.0557(5) 0.3323(4)
H23 H 1.05640 -0.12130 0.31970
C31 C 0.9005(5) -0.0559(5) 0.2805(4)
C32 C 0.8385(6) -0.1633(5) 0.2112(4)
H24 H 0.76630 -0.19460 0.23920
H25 H 0.90100 -0.21510 0.19970
H26 H 0.80890 -0.14840 0.15080
C33 C 1.3135(5) 0.4252(5) 0.3682(4)
H27 H 1.29680 0.45920 0.43350
H28 H 1.32020 0.48060 0.33120
H29 H 1.39310 0.39320 0.36910
C34 C 1.2036(5) 0.3349(4) 0.3221(3)
C35 C 1.2297(5) 0.2487(5) 0.2473(4)
H30 H 1.31510 0.24730 0.23210
C36 C 1.1371(5) 0.1637(5) 0.1930(4)
C37 C 1.1802(6) 0.0790(5) 0.1100(4)
H31 H 1.11170 0.05610 0.05850
H32 H 1.20090 0.01550 0.13240
H33 H 1.25550 0.11180 0.08630
C38 C 0.4764(9) 0.0940(7) 0.6875(6)
H34 H 0.53720 0.08890 0.63900
H35 H 0.46240 0.17030 0.71090
H36 H 0.39580 0.04990 0.65960
C39 C 0.5244(16) 0.0554(8) 0.7628(9)
H37 H 0.61470 0.04730 0.75390
H38 H 0.52300 0.11330 0.82180
O7 O 0.4807(11) -0.0201(13) 0.7758(8)
#END

data_CSD_CIF_DARTOH
_audit_creation_date 2012-07-02
_audit_creation_method CSD-ConQuest-V1
_database_code_CSD DARTOH
_database_code_depnum_ccdc_archive 'CCDC 806774'
_chemical_formula_sum 'C29 H29 Dy1 N4 O6'
_chemical_formula_moiety
;
C29 H29 Dy1 N4 O6
;
_journal_coden_Cambridge 1220
_journal_volume 18
_journal_year 2012
_journal_page_first 2484
_journal_name_full 'Chem.-Eur.J. '
loop_
_publ_author_name
"Gong-Jun Chen"
"Yun-Nan Guo"
"Jin-Lei Tian"
"Jinkui Tang"
"Wen Gu"
"Xin Liu"
"Shi-Ping Yan"
"Peng Cheng"
"Dai-Zheng Liao"
_chemical_name_systematic
;
tris(acetylacetonato)-(pyrazino[2,3-f][1,10]phenanthroline)-dysprosium(iii)
;
_cell_volume   1403.290
_exptl_crystal_colour 'colorless'
_exptl_crystal_density_diffrn 1.635
_exptl_crystal_description 'prism'
_diffrn_ambient_temperature 293
#These two values have been output from a single CSD field.
_refine_ls_R_factor_gt 0.0718
_refine_ls_wR_factor_gt 0.0718
_symmetry_cell_setting triclinic
_symmetry_space_group_name_H-M 'P -1'
_symmetry_Int_Tables_number 2
loop_
_symmetry_equiv_pos_site_id
_symmetry_equiv_pos_as_xyz
1 x,y,z
2 -x,-y,-z
_cell_length_a 9.4500(19)
_cell_length_b 9.5380(19)
_cell_length_c 16.081(3)
_cell_angle_alpha 100.18(3)
_cell_angle_beta 92.40(3)
_cell_angle_gamma 99.50(3)
_cell_formula_units_Z 2
loop_
_atom_type_symbol
_atom_type_radius_bond
C 0.68
H 0.23
Dy 1.92
N 0.68
O 0.68
loop_
_atom_site_label
_atom_site_type_symbol
_atom_site_fract_x
_atom_site_fract_y
_atom_site_fract_z
Dy1 Dy -0.05773(5) 0.77492(5) 0.23305(3)
O1 O 0.0273(7) 0.8424(7) 0.1104(4)
O2 O 0.0506(7) 0.5886(7) 0.1674(4)
O3 O -0.2390(7) 0.5762(7) 0.2082(5)
O4 O -0.2528(7) 0.8457(7) 0.1688(4)
O5 O -0.1846(7) 0.8582(7) 0.3507(4)
O6 O 0.0221(7) 0.6823(7) 0.3464(4)
N1 N 0.2126(7) 0.8825(8) 0.2730(5)
N2 N 0.0141(7) 1.0537(8) 0.2657(5)
N3 N 0.5896(8) 1.2963(10) 0.3571(6)
N4 N 0.3834(9) 1.4776(9) 0.3492(6)
C1 C 0.3094(10) 0.7960(11) 0.2765(6)
H1 H 0.27760 0.69650 0.26720
C2 C 0.4549(10) 0.8482(11) 0.2933(6)
H2 H 0.51930 0.78420 0.29290
C3 C 0.5031(10) 0.9910(12) 0.3100(6)
H3 H 0.60110 1.02670 0.32110
C4 C 0.4044(10) 1.0867(10) 0.3108(6)
C5 C 0.4476(10) 1.2416(11) 0.3326(6)
C6 C 0.6210(13) 1.4383(14) 0.3771(8)
H4 H 0.71570 1.48160 0.39440
C7 C 0.5184(13) 1.5256(13) 0.3734(8)
H5 H 0.54800 1.62510 0.38910
C8 C 0.3477(9) 1.332(1) 0.3288(6)
C9 C 0.1971(9) 1.2689(10) 0.3027(6)
C10 C 0.0917(10) 1.3549(10) 0.2947(6)
H6 H 0.11660 1.45520 0.30540
C11 C -0.048(1) 1.2897(11) 0.2709(6)
H7 H -0.11880 1.34400 0.26260
C12 C -0.0802(10) 1.1418(12) 0.2597(6)
H8 H -0.17620 1.09910 0.24680
C13 C 0.1535(9) 1.1204(10) 0.2862(6)
C14 C 0.2596(9) 1.0266(10) 0.2894(6)
C15 C -0.2689(12) 0.9403(14) 0.4827(7)
H9 H -0.28850 1.02040 0.45810
H10 H -0.22260 0.97570 0.53850
H11 H -0.35750 0.87660 0.48620
C16 C -0.1729(10) 0.8601(11) 0.4290(6)
C17 C -0.0729(11) 0.7921(12) 0.4684(6)
H12 H -0.06910 0.80210 0.52700
C18 C 0.0185(11) 0.7127(11) 0.4254(7)
C19 C 0.1265(13) 0.6544(14) 0.4765(7)
H13 H 0.10490 0.55060 0.46540
H14 H 0.12110 0.69000 0.53570
H15 H 0.22170 0.68570 0.46060
C20 C 0.1756(11) 0.4269(12) 0.0891(7)
H16 H 0.26050 0.43530 0.12590
H17 H 0.19890 0.40580 0.03120
H18 H 0.10370 0.35010 0.10020
C21 C 0.120(1) 0.5642(11) 0.1044(7)
C22 C 0.1513(10) 0.6609(13) 0.0483(7)
H19 H 0.20640 0.63430 0.00350
C23 C 0.1058(11) 0.7925(12) 0.0550(7)
C24 C -0.3521(10) 0.5387(11) 0.1576(6)
C25 C -0.4122(11) 0.6303(12) 0.1150(7)
H20 H -0.49030 0.58970 0.07620
C26 C -0.3653(10) 0.7783(12) 0.1255(6)
C27 C 0.1516(14) 0.8875(14) -0.0089(8)
H21 H 0.06780 0.90430 -0.03880
H22 H 0.20980 0.84000 -0.04840
H23 H 0.20600 0.97820 0.02010
C28 C -0.4515(11) 0.8702(13) 0.0849(7)
H24 H -0.44450 0.96280 0.12140
H25 H -0.55040 0.82340 0.07590
H26 H -0.41470 0.88330 0.03160
C29 C -0.4182(12) 0.3801(11) 0.1438(7)
H27 H -0.43810 0.34310 0.08420
H28 H -0.50610 0.36880 0.17170
H29 H -0.35230 0.32770 0.16670
#END

data_CSD_CIF_DARTUN
_audit_creation_date 2012-07-02
_audit_creation_method CSD-ConQuest-V1
_database_code_CSD DARTUN
_database_code_depnum_ccdc_archive 'CCDC 806780'
_chemical_formula_sum 'C34 H35 Dy1 N4 O7'
_chemical_formula_moiety
;
C33 H31 Dy1 N4 O6,C1 H4 O1
;
_journal_coden_Cambridge 1220
_journal_volume 18
_journal_year 2012
_journal_page_first 2484
_journal_name_full 'Chem.-Eur.J. '
loop_
_publ_author_name
"Gong-Jun Chen"
"Yun-Nan Guo"
"Jin-Lei Tian"
"Jinkui Tang"
"Wen Gu"
"Xin Liu"
"Shi-Ping Yan"
"Peng Cheng"
"Dai-Zheng Liao"
_chemical_name_systematic
;
tris(acetylacetonato)-(dipyrido[3,2-a:2',3'-c]phenazine)-dysprosium(iii) 
methanol solvate
;
_cell_volume   1583.067
_exptl_crystal_colour 'colorless'
_exptl_crystal_density_diffrn 1.622
_exptl_crystal_description 'prism'
_diffrn_ambient_temperature 293
#These two values have been output from a single CSD field.
_refine_ls_R_factor_gt 0.1285
_refine_ls_wR_factor_gt 0.1285
_symmetry_cell_setting triclinic
_symmetry_space_group_name_H-M 'P -1'
_symmetry_Int_Tables_number 2
loop_
_symmetry_equiv_pos_site_id
_symmetry_equiv_pos_as_xyz
1 x,y,z
2 -x,-y,-z
_cell_length_a 9.6410(19)
_cell_length_b 12.649(3)
_cell_length_c 13.517(3)
_cell_angle_alpha 76.96(3)
_cell_angle_beta 80.35(3)
_cell_angle_gamma 88.41(3)
_cell_formula_units_Z 2
loop_
_atom_type_symbol
_atom_type_radius_bond
C 0.68
H 0.23
Dy 1.92
N 0.68
O 0.68
loop_
_atom_site_label
_atom_site_type_symbol
_atom_site_fract_x
_atom_site_fract_y
_atom_site_fract_z
C1 C 0.517(3) 0.065(2) 0.2702(19)
H1 H 0.49070 0.13710 0.23850
H2 H 0.61730 0.06230 0.26660
H3 H 0.47240 0.04750 0.34100
Dy1 Dy 0.10235(9) 0.76657(8) 0.33216(8)
C2 C 0.3315(17) 0.5780(15) 0.2413(14)
O1 O -0.0609(14) 0.8561(11) 0.426(1)
O2 O 0.0841(12) 0.6757(10) 0.5030(9)
N1 N 0.2204(13) 0.5854(11) 0.3175(11)
O3 O 0.3181(12) 0.7866(10) 0.3796(11)
O4 O -0.0095(13) 0.8349(11) 0.1929(10)
O5 O 0.1617(12) 0.9519(10) 0.2774(10)
C3 C 0.7970(18) 0.3118(16) 0.0786(15)
H4 H 0.77880 0.25040 0.13180
C4 C 0.7140(18) 0.4028(17) 0.0802(14)
N2 N 0.2841(13) 0.7657(12) 0.1715(11)
C5 C 0.4043(17) 0.4892(14) 0.2384(13)
O6 O -0.0872(12) 0.6516(10) 0.3451(10)
C6 C 0.932(2) 0.405(2) -0.0806(16)
H5 H 1.00300 0.40450 -0.13640
C7 C -0.180(2) 0.920(2) 0.0973(18)
H6 H -0.14240 0.98770 0.10160
H7 H -0.28050 0.92200 0.10860
H8 H -0.14620 0.90610 0.03040
N3 N 0.6059(14) 0.3977(12) 0.1574(11)
C8 C 0.3655(19) 0.7673(14) 0.4617(15)
N4 N 0.6685(14) 0.5858(13) 0.0046(10)
C9 C 0.151(2) 0.6783(14) 0.5703(16)
C10 C 0.091(2) 1.0369(19) 0.2749(16)
C11 C 0.857(2) 0.4913(18) -0.0771(15)
H9 H 0.87960 0.55220 -0.13040
C12 C 0.5644(17) 0.5816(15) 0.0811(15)
C13 C 0.4772(16) 0.6806(14) 0.0835(14)
C14 C 0.5002(18) 0.7760(16) 0.0082(15)
H10 H 0.57100 0.77950 -0.04840
C15 C 0.3637(19) 0.3922(15) 0.3124(13)
H11 H 0.41160 0.32770 0.31070
C16 C -0.201(2) 0.6637(16) 0.3138(17)
C17 C 0.5281(19) 0.4873(15) 0.1575(14)
C18 C 0.3669(16) 0.6808(14) 0.1621(13)
C19 C 0.2884(18) 0.7186(14) 0.5590(15)
H12 H 0.32990 0.71310 0.61730
C20 C 0.7456(19) 0.4987(17) 0.0019(16)
C21 C 0.4208(18) 0.8625(15) 0.0168(15)
H13 H 0.43810 0.92760 -0.03190
C22 C -0.132(3) 0.8292(19) 0.1789(17)
C23 C -0.0978(18) 0.9538(19) 0.4102(15)
C24 C 0.3133(18) 0.8539(15) 0.0986(15)
H14 H 0.25740 0.91430 0.10270
C25 C 0.906(2) 0.3116(19) -0.0012(17)
H15 H 0.96200 0.25050 -0.00240
C26 C -0.033(2) 1.0393(18) 0.3345(16)
H16 H -0.08160 1.10440 0.32450
C27 C 0.252(2) 0.3983(16) 0.3855(16)
H17 H 0.22080 0.33650 0.43560
C28 C -0.2191(19) 0.9788(17) 0.4882(16)
H18 H -0.24660 0.91410 0.54000
H19 H -0.29730 1.00470 0.45420
H20 H -0.19030 1.03350 0.51980
C29 C 0.5077(19) 0.8092(16) 0.4610(17)
H21 H 0.56240 0.81680 0.39340
H22 H 0.55310 0.75930 0.51000
H23 H 0.49990 0.87850 0.47900
C30 C 0.079(2) 0.6321(17) 0.6798(15)
H24 H -0.00570 0.67100 0.69430
H25 H 0.14120 0.63920 0.72680
H26 H 0.05750 0.55680 0.68760
C31 C 0.1853(19) 0.4930(17) 0.3867(15)
H27 H 0.10970 0.49410 0.43920
C32 C -0.317(2) 0.5821(18) 0.3613(19)
H28 H -0.28210 0.52310 0.40870
H29 H -0.34900 0.55500 0.30820
H30 H -0.39320 0.61610 0.39730
C33 C -0.227(2) 0.751(2) 0.2364(18)
H31 H -0.31840 0.75750 0.22220
C34 C 0.152(3) 1.1372(18) 0.200(2)
H32 H 0.25170 1.14070 0.20020
H33 H 0.10810 1.20000 0.21960
H34 H 0.13640 1.13520 0.13220
O7 O 0.4740(16) -0.0094(14) 0.2185(12)
#END

data_CSD_CIF_EDANUS
_audit_creation_date 2002-01-23
_audit_creation_method CSD-ConQuest-V1
_database_code_CSD EDANUS
_database_code_depnum_ccdc_archive 'CCDC 175334'
_chemical_formula_sum 'C27 H29 N2 O6 Sm1'
_chemical_formula_moiety
;
C27 H29 N2 O6 Sm1
;
_journal_coeditor_code "IUCr WN6044"
_journal_coden_Cambridge 1370
_journal_volume 57
_journal_year 2001
_journal_page_first m457
_journal_name_full 'Acta Crystallogr.,Sect.E:Struct.Rep.Online '
loop_
_publ_author_name
"U.K.Urs"
"K.Shalini"
"T.S.Cameron"
"S.A.Shivashankar"
"T.N.Guru Row"
_chemical_name_systematic
;
tris(2,4-Pentanedionato)-(1,10-phenanthroline)-samarium(iii)
;
_cell_volume   2876.187
_exptl_crystal_colour 'colorless'
_exptl_crystal_density_diffrn 1.45
_exptl_special_details
;
isostructural with the praseodymium complex

;
_exptl_crystal_description 'prism'
_exptl_crystal_preparation 'aqueous ethanol'
_diffrn_ambient_temperature 173
_diffrn_special_details
;
The crystal was found to be a non-merohedral twin with two components; 
TwinSolve was used to process the data
;
#These two values have been output from a single CSD field.
_refine_ls_R_factor_gt 0.0729
_refine_ls_wR_factor_gt 0.0729
_symmetry_cell_setting monoclinic
_symmetry_space_group_name_H-M 'P 21/n'
_symmetry_Int_Tables_number 14
loop_
_symmetry_equiv_pos_site_id
_symmetry_equiv_pos_as_xyz
1 x,y,z
2 1/2+x,1/2-y,1/2+z
3 -x,-y,-z
4 -1/2-x,-1/2+y,-1/2-z
_cell_length_a 9.432(2)
_cell_length_b 20.957(5)
_cell_length_c 14.728(3)
_cell_angle_alpha 90
_cell_angle_beta 98.899(9)
_cell_angle_gamma 90
_cell_formula_units_Z 4
loop_
_atom_type_symbol
_atom_type_radius_bond
C 0.68
H 0.23
N 0.68
O 0.68
Sm 1.80
loop_
_atom_site_label
_atom_site_type_symbol
_atom_site_fract_x
_atom_site_fract_y
_atom_site_fract_z
Sm1 Sm 0.41619(4) 0.154403(16) 0.16003(2)
O1 O 0.2562(5) 0.1074(2) 0.0416(3)
O2 O 0.4770(5) 0.0445(2) 0.1545(3)
O3 O 0.5312(5) 0.2539(2) 0.2005(3)
C1 C 0.7762(7) 0.1213(3) 0.1610(5)
H1 H 0.75670 0.09730 0.21240
O4 O 0.2371(5) 0.2346(2) 0.1495(3)
C2 C 0.6053(9) 0.2482(3) -0.0997(5)
C3 C 0.3390(8) 0.2350(3) -0.0540(5)
H2 H 0.24550 0.23150 -0.03810
C4 C 0.4191(8) -0.0047(3) 0.1132(5)
C5 C 0.9171(8) 0.1225(3) 0.1439(6)
H3 H 0.99070 0.09940 0.18130
C6 C 0.2301(7) 0.0510(4) 0.0103(5)
N1 N 0.4474(6) 0.2098(3) 0.0033(4)
C7 C 0.3529(10) 0.2663(4) -0.1355(5)
H4 H 0.27150 0.28230 -0.17510
C8 C 0.4882(10) -0.0675(4) 0.1437(6)
H5 H 0.54920 -0.06220 0.20330
H6 H 0.54670 -0.08220 0.09820
H7 H 0.41350 -0.09920 0.14920
C9 C 0.2343(8) 0.2952(4) 0.1499(5)
C10 C 0.0896(9) 0.3260(4) 0.1337(7)
H8 H 0.04260 0.31670 0.07100
H9 H 0.10020 0.37220 0.14180
H10 H 0.03100 0.30910 0.17770
C11 C 0.5805(7) 0.2154(3) -0.0200(5)
C12 C 0.6973(7) 0.1847(3) 0.0374(5)
C13 C 0.1114(9) 0.0466(4) -0.0711(5)
H11 H 0.02330 0.06510 -0.05480
H12 H 0.09450 0.00170 -0.08820
H13 H 0.13930 0.07000 -0.12310
C14 C 0.9460(8) 0.1583(4) 0.0711(5)
H14 H 1.04200 0.16190 0.05960
C15 C 0.7499(10) 0.2522(4) -0.1190(6)
H15 H 0.76830 0.27530 -0.17140
C16 C 0.8592(10) 0.2241(4) -0.0649(6)
H16 H 0.95340 0.22740 -0.07970
C17 C 0.8365(7) 0.1895(4) 0.0139(5)
C18 C 0.6206(10) 0.3590(4) 0.1927(7)
H17 H 0.68810 0.35150 0.24930
H18 H 0.58300 0.40260 0.19310
H19 H 0.67010 0.35340 0.13950
C19 C 0.3540(9) 0.3339(4) 0.1634(6)
H20 H 0.34000 0.37860 0.15640
C20 C 0.3025(9) -0.0034(4) 0.0452(6)
H21 H 0.26820 -0.04320 0.01980
C21 C 0.4963(9) 0.3114(4) 0.1869(5)
O5 O 0.2609(5) 0.1120(2) 0.2587(3)
O6 O 0.5553(5) 0.1351(2) 0.3041(3)
N2 N 0.6685(5) 0.1508(3) 0.1116(3)
C22 C 0.2860(9) 0.0777(4) 0.3312(6)
C23 C 0.5438(9) 0.0959(4) 0.3682(6)
C24 C 0.4162(9) 0.0687(4) 0.3837(6)
H22 H 0.41990 0.04140 0.43560
C25 C 0.4862(11) 0.2729(4) -0.1559(5)
H23 H 0.49920 0.29510 -0.21030
C26 C 0.6803(9) 0.0784(5) 0.4296(6)
H24 H 0.74150 0.05360 0.39470
H25 H 0.65780 0.05290 0.48130
H26 H 0.73070 0.11740 0.45300
C27 C 0.151(1) 0.0466(6) 0.3589(8)
H27 H 0.09170 0.07940 0.38200
H28 H 0.17950 0.01480 0.40710
H29 H 0.09580 0.02570 0.30520
#END

data_CSD_CIF_EKOMOH
_audit_creation_date 2011-05-12
_audit_creation_method CSD-ConQuest-V1
_database_code_CSD EKOMOH
_database_code_depnum_ccdc_archive 'CCDC 782173'
_chemical_formula_sum 'C29 H29 Eu1 N4 O6'
_chemical_formula_moiety
;
C29 H29 Eu1 N4 O6
;
_journal_coden_Cambridge 222
_journal_volume 39
_journal_year 2010
_journal_page_first 10637
_journal_name_full 'Dalton Trans. '
loop_
_publ_author_name
"Gong-Jun Chen"
"Xin Qiao"
"Jin-Lei Tian"
"Jing-Yuan Xu"
"Wen Gu"
"Xin Liu"
"Shi-Ping Yan"
_chemical_name_systematic
;
tris(acetylacetonato)-(pyrazino[2,3-f][1,10]phenanthroline)-europium(iii)
;
_cell_volume   1445.884
_exptl_crystal_colour 'colorless'
_exptl_crystal_density_diffrn 1.563
_exptl_special_details
;
cytotoxic activity

;
_exptl_crystal_description 'prism'
_diffrn_ambient_temperature 293
#These two values have been output from a single CSD field.
_refine_ls_R_factor_gt 0.0842
_refine_ls_wR_factor_gt 0.0842
_symmetry_cell_setting triclinic
_symmetry_space_group_name_H-M 'P -1'
_symmetry_Int_Tables_number 2
loop_
_symmetry_equiv_pos_site_id
_symmetry_equiv_pos_as_xyz
1 x,y,z
2 -x,-y,-z
_cell_length_a 9.5250(19)
_cell_length_b 9.6630(19)
_cell_length_c 16.224(3)
_cell_angle_alpha 100.16(3)
_cell_angle_beta 92.57(3)
_cell_angle_gamma 99.41(3)
_cell_formula_units_Z 2
loop_
_atom_type_symbol
_atom_type_radius_bond
C 0.68
H 0.23
Eu 1.98
N 0.68
O 0.68
loop_
_atom_site_label
_atom_site_type_symbol
_atom_site_fract_x
_atom_site_fract_y
_atom_site_fract_z
Eu1 Eu 0.55734(6) 0.72317(6) 0.26768(3)
O1 O 0.4712(8) 0.6597(9) 0.3922(5)
O2 O 0.4462(8) 0.9109(8) 0.3327(5)
O3 O 0.7430(9) 0.9251(8) 0.2949(6)
O4 O 0.7568(7) 0.6500(8) 0.3332(5)
O5 O 0.4751(8) 0.8157(8) 0.1517(5)
N1 N 0.2838(9) 0.6139(10) 0.2271(5)
N2 N 0.4813(9) 0.4402(9) 0.2347(5)
N3 N -0.0871(11) 0.1995(11) 0.1436(7)
N4 N 0.1154(11) 0.0195(11) 0.1523(7)
C1 C 0.1848(12) 0.6971(12) 0.2248(7)
H1 H 0.21450 0.79550 0.23650
C2 C 0.0433(12) 0.6455(13) 0.2062(7)
H2 H -0.02050 0.70870 0.20560
C3 C -0.0059(12) 0.5026(14) 0.1886(7)
C4 C 0.0923(11) 0.4085(12) 0.1908(6)
C5 C 0.0516(11) 0.2551(12) 0.1685(7)
C6 C -0.1229(16) 0.0579(17) 0.1260(9)
H3 H -0.21820 0.01570 0.11320
C7 C -0.0149(16) -0.0305(14) 0.1265(10)
H4 H -0.04110 -0.12830 0.10710
C8 C 0.1501(12) 0.1634(13) 0.1723(7)
C9 C 0.3044(11) 0.2247(12) 0.1976(7)
C10 C 0.4071(12) 0.1429(12) 0.2049(7)
H5 H 0.38280 0.04390 0.19320
C11 C 0.5411(14) 0.2042(13) 0.2287(8)
H6 H 0.60960 0.14900 0.23770
C12 C 0.5787(12) 0.3541(12) 0.2401(7)
H7 H 0.67430 0.39550 0.25190
C13 C 0.3453(10) 0.3762(11) 0.2139(6)
C14 C 0.2385(11) 0.4681(12) 0.2113(6)
C15 C 0.3504(17) 0.6143(17) 0.5123(9)
H8 H 0.28640 0.52930 0.48560
H9 H 0.30290 0.66800 0.55450
H10 H 0.43290 0.58880 0.53800
C16 C 0.3963(13) 0.7044(15) 0.4473(8)
C17 C 0.3513(13) 0.8380(14) 0.4541(8)
H11 H 0.29810 0.86450 0.49910
C18 C 0.3801(12) 0.9354(13) 0.3981(7)
C19 C 0.3233(14) 1.0738(14) 0.4110(8)
H12 H 0.39930 1.15120 0.40840
H13 H 0.28520 1.08900 0.46500
H14 H 0.24940 1.06920 0.36790
C20 C 0.3670(15) 0.8414(16) 0.0210(9)
H15 H 0.28750 0.85640 0.05380
H16 H 0.33450 0.77230 -0.02910
H17 H 0.40970 0.92980 0.00620
C21 C 0.4782(13) 0.7861(12) 0.0728(8)
C22 C 0.5753(14) 0.7106(15) 0.0298(8)
H18 H 0.57730 0.70640 -0.02780
C23 C 0.6699(11) 0.6410(13) 0.0699(8)
C24 C 0.7636(14) 0.5617(17) 0.0143(8)
H19 H 0.85710 0.61840 0.01810
H20 H 0.72340 0.54280 -0.04270
H21 H 0.77010 0.47300 0.03190
C25 C 0.9198(14) 1.1174(13) 0.3595(9)
H22 H 0.85720 1.16900 0.33420
H23 H 1.00910 1.12640 0.33400
H24 H 0.93610 1.15560 0.41860
C26 C 0.8511(13) 0.9589(12) 0.3463(8)
C27 C 0.9165(13) 0.8638(13) 0.3851(8)
H25 H 0.99970 0.90130 0.41950
C28 C 0.8664(12) 0.7194(14) 0.3758(7)
C29 C 0.9536(13) 0.6271(14) 0.4182(9)
H26 H 0.92410 0.62440 0.47380
H27 H 1.05320 0.66720 0.42130
H28 H 0.93780 0.53190 0.38580
O6 O 0.6851(8) 0.6411(9) 0.1468(5)
#END

data_CSD_CIF_EKOMUN
_audit_creation_date 2011-05-12
_audit_creation_method CSD-ConQuest-V1
_database_code_CSD EKOMUN
_database_code_depnum_ccdc_archive 'CCDC 782174'
_chemical_formula_sum 'C34 H35 Eu1 N4 O7'
_chemical_formula_moiety
;
C33 H31 Eu1 N4 O6,C1 H4 O1
;
_journal_coden_Cambridge 222
_journal_volume 39
_journal_year 2010
_journal_page_first 10637
_journal_name_full 'Dalton Trans. '
loop_
_publ_author_name
"Gong-Jun Chen"
"Xin Qiao"
"Jin-Lei Tian"
"Jing-Yuan Xu"
"Wen Gu"
"Xin Liu"
"Shi-Ping Yan"
_chemical_name_systematic
;
tris(acetylacetonato)-(dipyrido[3,2-a:2',3'-c]phenazine)-europium(iii) 
methanol solvate
;
_cell_volume   1623.073
_exptl_crystal_colour 'colorless'
_exptl_crystal_density_diffrn 1.558
_exptl_special_details
;
cytotoxic activity

;
_exptl_crystal_description 'prism'
_diffrn_ambient_temperature 293
#These two values have been output from a single CSD field.
_refine_ls_R_factor_gt 0.0435
_refine_ls_wR_factor_gt 0.0435
_symmetry_cell_setting triclinic
_symmetry_space_group_name_H-M 'P -1'
_symmetry_Int_Tables_number 2
loop_
_symmetry_equiv_pos_site_id
_symmetry_equiv_pos_as_xyz
1 x,y,z
2 -x,-y,-z
_cell_length_a 9.6910(19)
_cell_length_b 12.743(3)
_cell_length_c 13.705(3)
_cell_angle_alpha 76.73(3)
_cell_angle_beta 80.20(3)
_cell_angle_gamma 88.54(3)
_cell_formula_units_Z 2
loop_
_atom_type_symbol
_atom_type_radius_bond
C 0.68
H 0.23
Eu 1.98
N 0.68
O 0.68
loop_
_atom_site_label
_atom_site_type_symbol
_atom_site_fract_x
_atom_site_fract_y
_atom_site_fract_z
C1 C 1.3585(5) -0.0016(5) -0.0791(4)
H1 H 1.37960 0.06010 -0.13090
H2 H 1.50840 -0.09220 -0.13360
C2 C 1.4344(5) -0.0924(6) -0.0803(4)
Eu1 Eu 0.60020(2) 0.265866(19) 0.332709(16)
O1 O 0.4051(3) 0.1507(3) 0.3481(3)
O2 O 0.4865(3) 0.3308(3) 0.1913(3)
O3 O 0.4344(4) 0.3607(3) 0.4239(3)
O4 O 0.6610(4) 0.4513(3) 0.2762(3)
O5 O 0.8207(3) 0.2852(3) 0.3793(3)
O6 O 0.5845(3) 0.1739(3) 0.5041(2)
N1 N 0.7219(4) 0.0825(3) 0.3163(3)
N2 N 0.7872(4) 0.2648(3) 0.1710(3)
N3 N 1.1041(4) -0.1023(3) 0.1565(3)
N4 N 1.1693(4) 0.0877(4) 0.0030(3)
C3 C 0.6846(5) -0.0094(4) 0.3869(4)
H3 H 0.61100 -0.00740 0.43970
C4 C 0.7510(5) -0.1066(4) 0.3844(4)
H4 H 0.71880 -0.16900 0.43240
C5 C 0.8640(5) -0.1097(4) 0.3107(4)
H5 H 0.91140 -0.17380 0.30920
C6 C 0.9081(4) -0.0153(4) 0.2371(3)
C7 C 1.0290(4) -0.0132(4) 0.1566(3)
C8 C 1.2137(5) -0.0970(5) 0.0798(4)
C9 C 1.2980(5) -0.1888(5) 0.0765(4)
H6 H 1.28130 -0.25090 0.12830
C10 C 1.4044(6) -0.1853(5) -0.0040(5)
H7 H 1.45770 -0.24640 -0.00770
C11 C 1.2459(5) -0.0024(4) 0.0029(4)
C12 C 1.0630(4) 0.0827(4) 0.0800(3)
C13 C 0.9787(4) 0.1780(4) 0.0831(3)
C14 C 1.0041(5) 0.2739(4) 0.0088(4)
H8 H 1.07800 0.27810 -0.04510
C15 C 0.9217(5) 0.3617(4) 0.0143(4)
H9 H 0.93720 0.42510 -0.03590
C16 C 0.8136(5) 0.3537(4) 0.0973(4)
H10 H 0.75740 0.41330 0.10130
C17 C 0.8676(4) 0.1767(4) 0.1638(3)
C18 C 0.8322(4) 0.0792(4) 0.2424(3)
C19 C 0.3185(7) 0.4123(8) 0.0916(6)
H11 H 0.29690 0.47810 0.11340
H12 H 0.23730 0.38700 0.07180
H13 H 0.39380 0.42530 0.03460
C20 C 0.3625(6) 0.3267(5) 0.1794(4)
C21 C 0.2639(6) 0.2490(6) 0.2360(5)
C22 C 0.2901(5) 0.1656(5) 0.3129(4)
C23 C 0.1746(6) 0.0834(6) 0.3641(6)
H14 H 0.18710 0.05310 0.43290
H15 H 0.17830 0.02710 0.32770
H16 H 0.08540 0.11790 0.36410
C24 C 0.6477(9) 0.6376(5) 0.1974(6)
H17 H 0.72580 0.66510 0.21890
H18 H 0.57620 0.69110 0.19140
H19 H 0.67790 0.62010 0.13260
C25 C 0.5889(6) 0.5358(5) 0.2758(4)
C26 C 0.4628(6) 0.5421(5) 0.3377(5)
H20 H 0.41750 0.60800 0.32860
C27 C 0.3976(5) 0.4563(5) 0.4135(5)
C28 C 0.2786(6) 0.4798(5) 0.4912(5)
H21 H 0.25220 0.41520 0.54250
H22 H 0.20000 0.50520 0.45850
H23 H 0.30760 0.53410 0.52200
C29 C 1.0099(6) 0.3105(5) 0.4610(5)
H24 H 1.06970 0.30170 0.40000
H25 H 1.04700 0.27110 0.51910
H26 H 1.00550 0.38560 0.46200
C30 C 0.8653(5) 0.2685(4) 0.4637(4)
C31 C 0.7904(6) 0.2186(5) 0.5584(4)
H27 H 0.83310 0.21320 0.61510
C32 C 0.6549(5) 0.1762(4) 0.5732(4)
C33 C 0.5862(6) 0.1271(5) 0.6823(4)
H28 H 0.50310 0.16630 0.69950
H29 H 0.65030 0.13120 0.72760
H30 H 0.56190 0.05310 0.68840
O7 O -0.0299(6) 0.4929(6) 0.2143(4)
C34 C 0.0183(13) 0.5659(10) 0.2653(7)
H31 H -0.04770 0.56750 0.32570
H32 H 0.02770 0.63680 0.22140
H33 H 0.10750 0.54310 0.28350
#END

data_CSD_CIF_GOGJIX
_audit_creation_date 2014-07-10
_audit_creation_method CSD-ConQuest-V1
_database_code_CSD GOGJIX
_database_code_depnum_ccdc_archive 'CCDC 906668'
_chemical_formula_sum 'C23 H29 N4 O7 Tm1'
_chemical_formula_moiety
;
C23 H27 N4 O6 Tm1,H2 O1
;
_journal_coden_Cambridge 1078
_journal_year 2012
_journal_name_full 'CSD Communication(Private Communication) '
loop_
_publ_author_name
"G.Zucchi"
"P.Thuery"
"M.Ephritikhine"
_chemical_name_systematic
;
tris(Acetylacetonato)-(2,2'-bipyrimidine)-thulium monohydrate
;
_cell_volume   5112.872
_exptl_crystal_colour 'colorless'
_exptl_crystal_density_diffrn 1.669
_exptl_crystal_description 'irregular'
_diffrn_ambient_temperature 100
#These two values have been output from a single CSD field.
_refine_ls_R_factor_gt 0.0243
_refine_ls_wR_factor_gt 0.0243
_symmetry_cell_setting monoclinic
_symmetry_space_group_name_H-M 'P 21/n'
_symmetry_Int_Tables_number 14
loop_
_symmetry_equiv_pos_site_id
_symmetry_equiv_pos_as_xyz
1 x,y,z
2 1/2-x,1/2+y,1/2-z
3 -x,-y,-z
4 -1/2+x,-1/2-y,-1/2+z
_cell_length_a 9.1671(3)
_cell_length_b 36.8833(13)
_cell_length_c 15.6051(6)
_cell_angle_alpha 90
_cell_angle_beta 104.297(2)
_cell_angle_gamma 90
_cell_formula_units_Z 8
loop_
_atom_type_symbol
_atom_type_radius_bond
C 0.68
H 0.23
N 0.68
O 0.68
Tm 1.90
loop_
_atom_site_label
_atom_site_type_symbol
_atom_site_fract_x
_atom_site_fract_y
_atom_site_fract_z
Tm1 Tm 0.482536(14) 0.313057(4) 0.928338(9)
O1 O 0.3894(2) 0.32597(6) 1.04696(14)
O2 O 0.5560(2) 0.37133(6) 0.96893(14)
O3 O 0.2723(2) 0.34264(6) 0.84944(14)
O4 O 0.5476(2) 0.33596(6) 0.80750(14)
O5 O 0.2993(2) 0.27027(6) 0.91298(13)
O6 O 0.5645(2) 0.26484(6) 0.86088(14)
N1 N 0.5884(3) 0.26980(7) 1.05754(16)
N2 N 0.7662(3) 0.30935(7) 0.98061(17)
N3 N 0.9802(3) 0.27589(7) 1.05860(18)
N4 N 0.8063(3) 0.24385(7) 1.15537(17)
C1 C 0.7372(3) 0.26442(8) 1.0872(2)
C2 C 0.8331(3) 0.28447(9) 1.0385(2)
C3 C 0.8539(3) 0.32760(9) 0.9375(2)
H1 H 0.81120 0.34530 0.89650
C4 C 1.0062(3) 0.32045(10) 0.9533(2)
H2 H 1.06720 0.33300 0.92390
C5 C 1.0634(4) 0.29417(9) 1.0141(2)
H3 H 1.16540 0.28880 1.02500
C6 C 0.7155(4) 0.22705(9) 1.1982(2)
H4 H 0.75840 0.21240 1.24630
C7 C 0.5620(3) 0.23062(9) 1.1738(2)
H5 H 0.50080 0.21890 1.20450
C8 C 0.5023(4) 0.25223(9) 1.1024(2)
H6 H 0.39830 0.25480 1.08430
C9 C 0.3108(4) 0.34809(9) 1.1709(2)
H7 H 0.21440 0.33650 1.15190
H8 H 0.29930 0.37100 1.19760
H9 H 0.37730 0.33290 1.21320
C10 C 0.3764(3) 0.35408(9) 1.0917(2)
C11 C 0.4212(3) 0.38854(8) 1.0733(2)
H10 H 0.39270 0.40810 1.10310
C12 C 0.5073(3) 0.39549(9) 1.0121(2)
C13 C 0.5514(4) 0.43423(8) 0.9987(2)
H11 H 0.65820 0.43700 1.02120
H12 H 0.49990 0.45040 1.02960
H13 H 0.52420 0.43990 0.93670
C14 C 0.0976(4) 0.38496(10) 0.7674(2)
H14 H 0.02710 0.36770 0.73480
H15 H 0.09940 0.40600 0.73130
H16 H 0.06790 0.39190 0.81990
C15 C 0.2529(4) 0.36814(9) 0.7928(2)
C16 C 0.3624(4) 0.38049(9) 0.7515(2)
H17 H 0.34040 0.40090 0.71570
C17 C 0.5035(4) 0.36408(9) 0.7603(2)
C18 C 0.6112(4) 0.37932(10) 0.7107(2)
H18 H 0.70100 0.38740 0.75200
H19 H 0.56480 0.39940 0.67500
H20 H 0.63640 0.36090 0.67340
C19 C 0.1435(3) 0.21823(9) 0.8992(2)
H21 H 0.12840 0.22030 0.95770
H22 H 0.14740 0.19310 0.88400
H23 H 0.06180 0.22980 0.85780
C20 C 0.2903(4) 0.23643(9) 0.8962(2)
C21 C 0.4045(3) 0.21596(9) 0.8740(2)
H24 H 0.39500 0.19080 0.87240
C22 C 0.5319(3) 0.23121(9) 0.8541(2)
C23 C 0.6364(4) 0.20708(9) 0.8183(2)
H25 H 0.63460 0.21420 0.75890
H26 H 0.60400 0.18230 0.81850
H27 H 0.73700 0.20930 0.85470
O7 O 1.1649(2) 0.21667(6) 1.17198(15)
H28 H 1.09030 0.23110 1.14670
H29 H 1.15660 0.21030 1.22620
Tm2 Tm 0.124003(14) 0.438681(4) 0.331031(9)
O8 O -0.0124(2) 0.44123(6) 0.43357(13)
O9 O 0.2851(2) 0.46116(6) 0.45511(14)
O10 O -0.0821(2) 0.47248(6) 0.26289(14)
O11 O 0.2227(2) 0.48964(6) 0.28489(14)
O12 O -0.0360(2) 0.39070(6) 0.28108(14)
O13 O 0.1305(2) 0.42945(6) 0.18564(14)
N5 N 0.2170(3) 0.38402(7) 0.42880(16)
N6 N 0.3890(3) 0.41713(7) 0.33676(16)
N7 N 0.6028(3) 0.38304(7) 0.41365(17)
N8 N 0.4260(3) 0.34748(7) 0.50175(18)
C24 C 0.3611(3) 0.37317(8) 0.4457(2)
C25 C 0.4567(3) 0.39243(8) 0.3956(2)
C26 C 0.4750(3) 0.43447(8) 0.2917(2)
H30 H 0.43130 0.45170 0.24970
C27 C 0.6277(3) 0.42721(9) 0.3063(2)
H31 H 0.68800 0.43940 0.27580
C28 C 0.6852(4) 0.40111(9) 0.3678(2)
H32 H 0.78720 0.39560 0.37840
C29 C 0.3367(3) 0.33086(9) 0.5459(2)
H33 H 0.37740 0.31280 0.58640
C30 C 0.1854(3) 0.33973(9) 0.5333(2)
H34 H 0.12430 0.32800 0.56420
C31 C 0.1307(3) 0.36646(8) 0.4736(2)
H35 H 0.02970 0.37280 0.46340
C32 C -0.1207(4) 0.44728(9) 0.5557(2)
H36 H -0.20940 0.45680 0.51590
H37 H -0.10040 0.46060 0.61030
H38 H -0.13630 0.42220 0.56720
C33 C 0.0118(4) 0.45079(9) 0.5144(2)
C34 C 0.1491(3) 0.46307(9) 0.5655(2)
H39 H 0.15570 0.46880 0.62430
C35 C 0.2791(3) 0.46729(8) 0.5334(2)
C36 C 0.4227(4) 0.48034(10) 0.5960(2)
H40 H 0.50160 0.46310 0.59720
H41 H 0.40710 0.48290 0.65430
H42 H 0.45070 0.50340 0.57620
C37 C -0.2598(3) 0.51036(10) 0.1664(2)
H43 H -0.32420 0.48950 0.15430
H44 H -0.26360 0.52310 0.11230
H45 H -0.29310 0.52610 0.20680
C38 C -0.0990(3) 0.49832(9) 0.2073(2)
C39 C 0.0176(3) 0.51643(9) 0.1823(2)
H46 H -0.00810 0.53350 0.13730
C40 C 0.1706(4) 0.51056(9) 0.2204(2)
C41 C 0.2837(4) 0.52988(10) 0.1802(2)
H47 H 0.36810 0.53750 0.22640
H48 H 0.23710 0.55070 0.14790
H49 H 0.31740 0.51370 0.14090
C42 C -0.2202(3) 0.34990(9) 0.1987(2)
H50 H -0.16790 0.32730 0.21340
H51 H -0.28330 0.34860 0.13970
H52 H -0.28110 0.35450 0.23950
C43 C -0.1073(3) 0.38018(9) 0.2042(2)
C44 C -0.0853(3) 0.39405(9) 0.1247(2)
H53 H -0.15230 0.38710 0.07220
C45 C 0.0316(3) 0.41770(9) 0.1198(2)
C46 C 0.0438(4) 0.42981(10) 0.0287(2)
H54 H 0.04680 0.45580 0.02680
H55 H -0.04190 0.42120 -0.01510
H56 H 0.13410 0.42010 0.01710
O14 O 0.8074(3) 0.33691(7) 0.56857(17)
H57 H 0.73460 0.34830 0.52000
H58 H 0.76960 0.31760 0.59710
#END

data_CSD_CIF_GOGJOD
_audit_creation_date 2014-07-10
_audit_creation_method CSD-ConQuest-V1
_database_code_CSD GOGJOD
_database_code_depnum_ccdc_archive 'CCDC 906667'
_chemical_formula_sum 'C23 H29 N4 O7 Tb1'
_chemical_formula_moiety
;
C23 H27 N4 O6 Tb1,H2 O1
;
_journal_coden_Cambridge 1078
_journal_year 2012
_journal_name_full 'CSD Communication(Private Communication) '
loop_
_publ_author_name
"G.Zucchi"
"P.Thuery"
"M.Ephritikhine"
_chemical_name_systematic
;
tris(Acetylacetonato)-(2,2'-bipyrimidine)-terbium monohydrate
;
_cell_volume   5156.887
_exptl_crystal_colour 'colorless'
_exptl_crystal_density_diffrn 1.629
_exptl_crystal_description 'parallelepiped'
_diffrn_ambient_temperature 100
#These two values have been output from a single CSD field.
_refine_ls_R_factor_gt 0.0421
_refine_ls_wR_factor_gt 0.0421
_symmetry_cell_setting monoclinic
_symmetry_space_group_name_H-M 'P 21/n'
_symmetry_Int_Tables_number 14
loop_
_symmetry_equiv_pos_site_id
_symmetry_equiv_pos_as_xyz
1 x,y,z
2 1/2-x,1/2+y,1/2-z
3 -x,-y,-z
4 -1/2+x,-1/2-y,-1/2+z
_cell_length_a 9.1825(5)
_cell_length_b 36.778(3)
_cell_length_c 15.7435(13)
_cell_angle_alpha 90
_cell_angle_beta 104.088(5)
_cell_angle_gamma 90
_cell_formula_units_Z 8
loop_
_atom_type_symbol
_atom_type_radius_bond
C 0.68
H 0.23
N 0.68
O 0.68
Tb 1.94
loop_
_atom_site_label
_atom_site_type_symbol
_atom_site_fract_x
_atom_site_fract_y
_atom_site_fract_z
Tb1 Tb 0.48632(3) 0.313864(7) 0.927455(18)
O1 O 0.3920(3) 0.32670(9) 1.0489(2)
O2 O 0.5571(3) 0.37329(9) 0.9708(2)
O3 O 0.2749(3) 0.34345(9) 0.8452(2)
O4 O 0.5550(4) 0.33811(9) 0.8061(2)
O5 O 0.3029(3) 0.26969(9) 0.9114(2)
O6 O 0.5671(3) 0.26434(9) 0.8582(2)
N1 N 0.5952(4) 0.26957(10) 1.0577(3)
N2 N 0.7745(4) 0.30910(11) 0.9803(3)
N3 N 0.9860(4) 0.27575(12) 1.0587(3)
N4 N 0.8118(4) 0.24452(11) 1.1558(3)
C1 C 0.7439(5) 0.26489(13) 1.0875(4)
C2 C 0.8397(5) 0.28462(13) 1.0396(4)
C3 C 0.8616(5) 0.32696(14) 0.9367(4)
H1 H 0.81920 0.34440 0.89520
C4 C 1.0142(5) 0.31965(15) 0.9531(4)
H2 H 1.07560 0.33180 0.92340
C5 C 1.0695(6) 0.29407(15) 1.0140(4)
H3 H 1.17160 0.28880 1.02560
C6 C 0.7212(6) 0.22788(14) 1.1978(4)
H4 H 0.76430 0.21370 1.24620
C7 C 0.5674(6) 0.23058(13) 1.1735(4)
H5 H 0.50640 0.21860 1.20380
C8 C 0.5090(6) 0.25208(14) 1.1016(4)
H6 H 0.40530 0.25450 1.08280
C9 C 0.3143(6) 0.34824(14) 1.1713(4)
H7 H 0.21960 0.33590 1.15290
H8 H 0.29970 0.37130 1.19690
H9 H 0.38210 0.33370 1.21390
C10 C 0.3795(5) 0.35432(15) 1.0931(4)
C11 C 0.4244(5) 0.38929(13) 1.0764(4)
H10 H 0.39630 0.40860 1.10720
C12 C 0.5097(6) 0.39694(15) 1.0158(4)
C13 C 0.5531(6) 0.43588(13) 1.0045(4)
H11 H 0.65980 0.43850 1.02540
H12 H 0.50340 0.45160 1.03730
H13 H 0.52360 0.44230 0.94360
C14 C 0.1007(5) 0.38499(15) 0.7611(4)
H14 H 0.03240 0.36770 0.72700
H15 H 0.10320 0.40650 0.72690
H16 H 0.06780 0.39120 0.81270
C15 C 0.2555(6) 0.36865(14) 0.7873(4)
C16 C 0.3673(6) 0.38125(14) 0.7477(4)
H17 H 0.34470 0.40160 0.71170
C17 C 0.5098(6) 0.36587(14) 0.7577(4)
C18 C 0.6157(6) 0.38096(15) 0.7078(4)
H18 H 0.70640 0.38870 0.74820
H19 H 0.56970 0.40130 0.67340
H20 H 0.63870 0.36250 0.67000
C19 C 0.1489(6) 0.21751(14) 0.8968(4)
H21 H 0.13350 0.21880 0.95490
H22 H 0.15250 0.19250 0.88010
H23 H 0.06770 0.22950 0.85670
C20 C 0.2948(6) 0.23585(14) 0.8951(4)
C21 C 0.4079(6) 0.21553(14) 0.8723(4)
H24 H 0.39790 0.19040 0.87030
C22 C 0.5362(6) 0.23081(14) 0.8523(4)
C23 C 0.6408(6) 0.20634(14) 0.8177(4)
H25 H 0.63460 0.21210 0.75750
H26 H 0.61240 0.18140 0.82220
H27 H 0.74200 0.20990 0.85140
O7 O 1.1706(4) 0.21664(10) 1.1720(3)
H28 H 1.09520 0.23430 1.14560
H29 H 1.13940 0.20540 1.21700
Tb2 Tb 0.12615(3) 0.439215(6) 0.331139(18)
O8 O -0.0090(3) 0.44151(9) 0.4366(2)
O9 O 0.2875(3) 0.46166(9) 0.4578(2)
O10 O -0.0791(3) 0.47491(9) 0.2629(2)
O11 O 0.2273(4) 0.49103(9) 0.2825(2)
O12 O -0.0357(3) 0.38981(9) 0.2794(2)
O13 O 0.1307(4) 0.42958(9) 0.1843(2)
N5 N 0.2227(4) 0.38335(10) 0.4295(3)
N6 N 0.3948(4) 0.41674(11) 0.3379(3)
N7 N 0.6082(4) 0.38280(11) 0.4151(3)
N8 N 0.4320(4) 0.34733(11) 0.5020(3)
C24 C 0.3669(5) 0.37262(13) 0.4464(4)
C25 C 0.4620(5) 0.39207(14) 0.3961(4)
C26 C 0.4819(5) 0.43441(14) 0.2939(4)
H30 H 0.43940 0.45220 0.25330
C27 C 0.6336(6) 0.42670(14) 0.3077(4)
H31 H 0.69360 0.43850 0.27650
C28 C 0.6907(6) 0.40099(14) 0.3694(4)
H32 H 0.79270 0.39580 0.38040
C29 C 0.3427(6) 0.33054(14) 0.5458(4)
H33 H 0.38390 0.31250 0.58600
C30 C 0.1930(6) 0.33883(13) 0.5338(4)
H34 H 0.13280 0.32690 0.56460
C31 C 0.1369(6) 0.36563(14) 0.4739(4)
H35 H 0.03580 0.37170 0.46380
C32 C -0.1182(6) 0.44751(14) 0.5580(4)
H36 H -0.20750 0.45650 0.51840
H37 H -0.09800 0.46160 0.61100
H38 H -0.13210 0.42250 0.57140
C33 C 0.0128(6) 0.45071(14) 0.5158(4)
C34 C 0.1521(6) 0.46325(14) 0.5664(4)
H39 H 0.15870 0.46910 0.62470
C35 C 0.2819(6) 0.46759(13) 0.5350(4)
C36 C 0.4239(6) 0.48065(15) 0.5973(4)
H40 H 0.50200 0.46300 0.60020
H41 H 0.40630 0.48390 0.65450
H42 H 0.45380 0.50340 0.57700
C37 C -0.2547(6) 0.51286(15) 0.1665(4)
H43 H -0.31860 0.49200 0.15160
H44 H -0.25600 0.52660 0.11460
H45 H -0.29030 0.52770 0.20740
C38 C -0.0954(6) 0.50051(14) 0.2078(4)
C39 C 0.0211(5) 0.51779(14) 0.1819(4)
H46 H -0.00470 0.53480 0.13710
C40 C 0.1749(6) 0.51162(14) 0.2177(4)
C41 C 0.2876(6) 0.52985(16) 0.1762(4)
H47 H 0.36990 0.53880 0.22120
H48 H 0.24030 0.54970 0.14030
H49 H 0.32420 0.51260 0.14060
C42 C -0.2206(6) 0.34983(14) 0.1971(4)
H50 H -0.17020 0.32690 0.21110
H51 H -0.28320 0.34890 0.13860
H52 H -0.28140 0.35460 0.23760
C43 C -0.1055(6) 0.37979(14) 0.2034(4)
C44 C -0.0847(6) 0.39376(14) 0.1241(4)
H53 H -0.15170 0.38680 0.07230
C45 C 0.0332(6) 0.41791(14) 0.1190(4)
C46 C 0.0445(6) 0.42963(15) 0.0287(4)
H54 H 0.04970 0.45570 0.02650
H55 H -0.04230 0.42130 -0.01410
H56 H 0.13330 0.41940 0.01640
O14 O 0.8114(4) 0.3367(1) 0.5693(3)
H57 H 0.75400 0.34030 0.51250
H58 H 0.77290 0.31750 0.58800
#END

data_CSD_CIF_GOGJUJ
_audit_creation_date 2014-07-10
_audit_creation_method CSD-ConQuest-V1
_database_code_CSD GOGJUJ
_database_code_depnum_ccdc_archive 'CCDC 906666'
_chemical_formula_sum 'C23 H29 Eu1 N4 O7'
_chemical_formula_moiety
;
C23 H27 Eu1 N4 O6,H2 O1
;
_journal_coden_Cambridge 1078
_journal_year 2012
_journal_name_full 'CSD Communication(Private Communication) '
loop_
_publ_author_name
"G.Zucchi"
"P.Thuery"
"M.Ephritikhine"
_chemical_name_systematic
;
tris(Acetylacetonato)-(2,2'-bipyrimidine)-europium monohydrate
;
_cell_volume   5168.154
_exptl_crystal_colour 'colorless'
_exptl_crystal_density_diffrn 1.608
_exptl_crystal_description 'irregular'
_diffrn_ambient_temperature 100
#These two values have been output from a single CSD field.
_refine_ls_R_factor_gt 0.0496
_refine_ls_wR_factor_gt 0.0496
_symmetry_cell_setting monoclinic
_symmetry_space_group_name_H-M 'P 21/n'
_symmetry_Int_Tables_number 14
loop_
_symmetry_equiv_pos_site_id
_symmetry_equiv_pos_as_xyz
1 x,y,z
2 1/2-x,1/2+y,1/2-z
3 -x,-y,-z
4 -1/2+x,-1/2-y,-1/2+z
_cell_length_a 9.1931(6)
_cell_length_b 36.802(3)
_cell_length_c 15.7429(14)
_cell_angle_alpha 90
_cell_angle_beta 103.993(5)
_cell_angle_gamma 90
_cell_formula_units_Z 8
loop_
_atom_type_symbol
_atom_type_radius_bond
C 0.68
H 0.23
Eu 1.98
N 0.68
O 0.68
loop_
_atom_site_label
_atom_site_type_symbol
_atom_site_fract_x
_atom_site_fract_y
_atom_site_fract_z
Eu1 Eu 0.48683(3) 0.314007(9) 0.92750(2)
O1 O 0.3929(4) 0.32641(11) 1.0489(3)
O2 O 0.5567(4) 0.37349(11) 0.9704(3)
O3 O 0.2764(4) 0.34337(11) 0.8447(3)
O4 O 0.5568(4) 0.33828(11) 0.8063(3)
O5 O 0.3039(4) 0.26987(11) 0.9120(3)
O6 O 0.5682(4) 0.26421(11) 0.8583(3)
N1 N 0.5961(6) 0.26960(13) 1.0574(3)
N2 N 0.7740(5) 0.30929(14) 0.9806(3)
N3 N 0.9861(6) 0.27551(14) 1.0590(3)
N4 N 0.8113(5) 0.24460(14) 1.1552(4)
C1 C 0.7451(7) 0.26481(16) 1.0867(5)
C2 C 0.8420(7) 0.28439(17) 1.0398(4)
C3 C 0.8613(7) 0.32705(17) 0.9381(4)
H1 H 0.81940 0.34490 0.89780
C4 C 1.0121(7) 0.31959(18) 0.9524(4)
H2 H 1.07250 0.33150 0.92170
C5 C 1.0691(7) 0.29363(19) 1.0145(5)
H3 H 1.17100 0.28850 1.02600
C6 C 0.7205(8) 0.22780(17) 1.1974(4)
H4 H 0.76390 0.21340 1.24540
C7 C 0.5669(7) 0.23058(17) 1.1741(4)
H5 H 0.50600 0.21880 1.20480
C8 C 0.5093(7) 0.25207(17) 1.1020(4)
H6 H 0.40580 0.25460 1.08330
C9 C 0.3128(6) 0.34803(16) 1.1719(4)
H7 H 0.21870 0.33560 1.15260
H8 H 0.29670 0.37100 1.19700
H9 H 0.37960 0.33360 1.21520
C10 C 0.3809(6) 0.35413(19) 1.0950(4)
C11 C 0.4235(6) 0.38952(17) 1.0781(4)
H10 H 0.39470 0.40870 1.10880
C12 C 0.5071(7) 0.39705(17) 1.0172(4)
C13 C 0.5524(7) 0.43621(16) 1.0050(4)
H11 H 0.65910 0.43860 1.02540
H12 H 0.50380 0.45220 1.03770
H13 H 0.52270 0.44250 0.94400
C14 C 0.1006(6) 0.38491(18) 0.7613(4)
H14 H 0.03210 0.36740 0.72850
H15 H 0.10280 0.40600 0.72580
H16 H 0.06830 0.39170 0.81260
C15 C 0.2562(7) 0.36845(18) 0.7881(5)
C16 C 0.3675(7) 0.38143(17) 0.7463(4)
H17 H 0.34470 0.40150 0.70950
C17 C 0.5091(7) 0.36560(19) 0.7575(4)
C18 C 0.6171(7) 0.38070(17) 0.7086(4)
H18 H 0.70410 0.38990 0.74950
H19 H 0.56970 0.40000 0.67090
H20 H 0.64640 0.36180 0.67410
C19 C 0.1491(6) 0.21713(16) 0.8973(4)
H21 H 0.13110 0.21950 0.95460
H22 H 0.15430 0.19190 0.88330
H23 H 0.06890 0.22840 0.85500
C20 C 0.2969(7) 0.23556(18) 0.8955(4)
C21 C 0.4103(7) 0.21518(16) 0.8728(4)
H24 H 0.40090 0.19000 0.87140
C22 C 0.5352(7) 0.23020(18) 0.8524(4)
C23 C 0.6423(7) 0.20675(16) 0.8173(4)
H25 H 0.63490 0.21280 0.75710
H26 H 0.61710 0.18160 0.82170
H27 H 0.74290 0.21100 0.85070
O7 O 1.1712(4) 0.21712(11) 1.1712(3)
H28 H 1.09580 0.23470 1.14480
H29 H 1.14000 0.20580 1.21620
Eu2 Eu 0.12647(3) 0.439199(9) 0.33109(2)
O8 O -0.0083(4) 0.44147(11) 0.4363(3)
O9 O 0.2871(4) 0.46148(11) 0.4566(3)
O10 O -0.0783(4) 0.47466(11) 0.2633(3)
O11 O 0.2271(4) 0.49077(11) 0.2818(3)
O12 O -0.0350(4) 0.39006(11) 0.2793(3)
O13 O 0.1331(4) 0.42959(10) 0.1838(3)
N5 N 0.2229(5) 0.38311(13) 0.4298(3)
N6 N 0.3951(5) 0.41690(13) 0.3377(3)
N7 N 0.6092(6) 0.38267(13) 0.4149(3)
N8 N 0.4324(6) 0.34674(14) 0.5028(4)
C24 C 0.3691(7) 0.37257(16) 0.4463(4)
C25 C 0.4659(7) 0.39244(17) 0.3968(4)
C26 C 0.4843(7) 0.43434(17) 0.2946(4)
H30 H 0.44240 0.45200 0.25380
C27 C 0.6340(7) 0.42712(17) 0.3084(4)
H31 H 0.69380 0.43930 0.27770
C28 C 0.6921(7) 0.40106(18) 0.3696(4)
H32 H 0.79390 0.39580 0.38030
C29 C 0.3421(8) 0.33041(18) 0.5461(4)
H33 H 0.38240 0.31250 0.58660
C30 C 0.1940(7) 0.33869(17) 0.5338(4)
H34 H 0.13390 0.32680 0.56470
C31 C 0.1379(6) 0.36504(16) 0.4747(4)
H35 H 0.03680 0.37090 0.46470
C32 C -0.1170(6) 0.44745(16) 0.5582(4)
H36 H -0.20480 0.45820 0.52090
H37 H -0.09390 0.45960 0.61380
H38 H -0.13520 0.42220 0.56660
C33 C 0.0142(7) 0.45127(16) 0.5157(5)
C34 C 0.1527(7) 0.46334(15) 0.5674(4)
H39 H 0.15970 0.46870 0.62600
C35 C 0.2798(7) 0.46766(16) 0.5351(5)
C36 C 0.4216(7) 0.48060(17) 0.5973(4)
H40 H 0.49950 0.46300 0.59990
H41 H 0.40410 0.48370 0.65460
H42 H 0.45160 0.50340 0.57720
C37 C -0.2529(6) 0.51299(16) 0.1674(4)
H43 H -0.32060 0.49280 0.16090
H44 H -0.25660 0.52340 0.11100
H45 H -0.28170 0.53100 0.20440
C38 C -0.0970(7) 0.50030(18) 0.2078(4)
C39 C 0.0211(7) 0.51796(17) 0.1804(4)
H46 H -0.00440 0.53470 0.13490
C40 C 0.1758(7) 0.51180(17) 0.2180(4)
C41 C 0.2892(7) 0.52980(18) 0.1752(4)
H47 H 0.37440 0.53760 0.21970
H48 H 0.24370 0.55040 0.14180
H49 H 0.32090 0.51270 0.13730
C42 C -0.2220(6) 0.34949(16) 0.1961(4)
H50 H -0.17200 0.32660 0.20950
H51 H -0.28530 0.34880 0.13780
H52 H -0.28190 0.35420 0.23710
C43 C -0.1055(7) 0.37965(17) 0.2021(5)
C44 C -0.0844(7) 0.39385(17) 0.1236(4)
H53 H -0.15160 0.38720 0.07170
C45 C 0.0344(7) 0.41793(17) 0.1189(4)
C46 C 0.0465(7) 0.42970(18) 0.0287(4)
H54 H 0.03580 0.45560 0.02360
H55 H -0.03130 0.41820 -0.01490
H56 H 0.14250 0.42270 0.02010
O14 O 0.8134(5) 0.33675(11) 0.5701(3)
H57 H 0.75600 0.34040 0.51330
H58 H 0.77490 0.31750 0.58880
#END

data_CSD_CIF_GOGMOG
_audit_creation_date 2014-07-10
_audit_creation_method CSD-ConQuest-V1
_database_code_CSD GOGMOG
_database_code_depnum_ccdc_archive 'CCDC 906664'
_chemical_formula_sum 'C25 H30 N5 O6 Tb1'
_chemical_formula_moiety
;
C23 H27 N4 O6 Tb1,C2 H3 N1
;
_journal_coden_Cambridge 1078
_journal_year 2012
_journal_name_full 'CSD Communication(Private Communication) '
loop_
_publ_author_name
"G.Zucchi"
"P.Thuery"
"M.Ephritikhine"
_chemical_name_systematic
;
tris(acetylacetonato)-(2,2'-bipyrimidine)-terbium acetonitrile solvate
;
_cell_volume   1343.512
_exptl_crystal_colour 'colorless'
_exptl_crystal_density_diffrn 1.62
_exptl_special_details
;
contribution from SIS2M, Bat. 125, 91191 Gif-sur-Yvette, France

;
_exptl_crystal_description 'lath'
_diffrn_ambient_temperature 100
#These two values have been output from a single CSD field.
_refine_ls_R_factor_gt 0.0337
_refine_ls_wR_factor_gt 0.0337
_symmetry_cell_setting triclinic
_symmetry_space_group_name_H-M 'P -1'
_symmetry_Int_Tables_number 2
loop_
_symmetry_equiv_pos_site_id
_symmetry_equiv_pos_as_xyz
1 x,y,z
2 -x,-y,-z
_cell_length_a 9.1972(8)
_cell_length_b 9.6338(10)
_cell_length_c 16.0652(14)
_cell_angle_alpha 86.510(5)
_cell_angle_beta 73.866(5)
_cell_angle_gamma 79.294(4)
_cell_formula_units_Z 2
loop_
_atom_type_symbol
_atom_type_radius_bond
C 0.68
H 0.23
N 0.68
O 0.68
Tb 1.94
loop_
_atom_site_label
_atom_site_type_symbol
_atom_site_fract_x
_atom_site_fract_y
_atom_site_fract_z
Tb1 Tb 0.594971(19) 0.58804(2) 0.728015(11)
O1 O 0.4026(3) 0.5404(3) 0.85053(15)
O2 O 0.6015(3) 0.7286(3) 0.83965(15)
O3 O 0.4021(3) 0.7641(3) 0.70344(16)
O4 O 0.7163(3) 0.7710(3) 0.65613(15)
O5 O 0.4567(3) 0.4660(3) 0.66607(15)
O6 O 0.7674(3) 0.4799(3) 0.60446(15)
N1 N 0.8602(3) 0.5170(3) 0.76056(18)
N2 N 0.6788(3) 0.3227(3) 0.77202(18)
N3 N 0.8785(3) 0.1419(3) 0.79697(19)
N4 N 1.0543(3) 0.3405(3) 0.79409(19)
C1 C 0.9173(4) 0.3839(4) 0.7788(2)
C2 C 0.8199(4) 0.2745(4) 0.7826(2)
C3 C 0.5907(4) 0.2249(4) 0.7761(2)
H1 H 0.49290 0.25300 0.76840
C4 C 0.6402(4) 0.0836(4) 0.7913(2)
H2 H 0.57790 0.01650 0.79450
C5 C 0.7874(4) 0.0470(4) 0.8014(2)
H3 H 0.82420 -0.04720 0.81180
C6 C 1.1384(4) 0.4415(5) 0.7909(2)
H4 H 1.23370 0.41620 0.80230
C7 C 1.0911(4) 0.5798(4) 0.7718(2)
H5 H 1.15270 0.64730 0.76870
C8 C 0.9477(4) 0.6145(4) 0.7572(2)
H6 H 0.91120 0.70790 0.74480
C9 C 0.2128(4) 0.5258(5) 0.9839(2)
H7 H 0.12150 0.58920 0.97930
H8 H 0.21620 0.51960 1.04320
H9 H 0.21170 0.43380 0.96440
C10 C 0.3523(4) 0.5801(4) 0.9287(2)
C11 C 0.4180(4) 0.6718(4) 0.9658(2)
H10 H 0.37630 0.69120 1.02450
C12 C 0.5410(4) 0.7356(4) 0.9211(2)
C13 C 0.6110(4) 0.8215(4) 0.9707(2)
H11 H 0.71950 0.78710 0.95840
H12 H 0.56420 0.81300 1.03170
H13 H 0.59350 0.91900 0.95330
C14 C 0.2393(4) 0.9504(4) 0.6536(3)
H14 H 0.18510 0.88120 0.64150
H15 H 0.24960 1.01990 0.60790
H16 H 0.18290 0.99550 0.70750
C15 C 0.3970(4) 0.8788(4) 0.6594(2)
C16 C 0.5235(4) 0.9425(4) 0.6194(2)
H17 H 0.50640 1.02670 0.58920
C17 C 0.6752(4) 0.8878(4) 0.6216(2)
C18 C 0.7999(4) 0.9721(4) 0.5798(2)
H18 H 0.87510 0.95870 0.61200
H19 H 0.75560 1.07050 0.57920
H20 H 0.84830 0.94080 0.52140
C19 C 0.3500(4) 0.3359(4) 0.5850(2)
H21 H 0.32190 0.26460 0.62790
H22 H 0.37820 0.29580 0.52830
H23 H 0.26430 0.41190 0.59010
C20 C 0.4839(4) 0.3911(4) 0.5988(2)
C21 C 0.6298(4) 0.3537(4) 0.5409(2)
H24 H 0.63900 0.29560 0.49490
C22 C 0.7620(4) 0.3975(4) 0.5477(2)
C23 C 0.9145(4) 0.3429(4) 0.4826(2)
H25 H 0.95840 0.42130 0.45310
H26 H 0.89770 0.28420 0.44120
H27 H 0.98370 0.28870 0.51240
N5 N 0.0061(4) 0.8434(4) 0.9190(2)
C24 C 0.0954(5) 0.9155(5) 0.9032(3)
C25 C 0.2078(5) 1.0100(5) 0.8828(3)
H28 H 0.30270 0.96250 0.84570
H29 H 0.22510 1.03670 0.93530
H30 H 0.16950 1.09300 0.85370
#END

data_CSD_CIF_GUFMIF
_audit_creation_date 2015-04-17
_audit_creation_method CSD-ConQuest-V1
_database_code_CSD GUFMIF
_database_code_depnum_ccdc_archive 'CCDC 965722'
_chemical_formula_sum 'C31 H41 Dy1 N2 O8'
_chemical_formula_moiety
;
C31 H37 Dy1 N2 O6,2(H2 O1)
;
_journal_coden_Cambridge 222
_journal_volume 44
_journal_year 2015
_journal_page_first 9020
_journal_name_full 'Dalton Trans. '
loop_
_publ_author_name
"Yu-Zhang Tong"
"Chen Gao"
"Qing-Lun Wang"
"Bing-Wu Wang"
"Song Gao"
"Peng Cheng"
"Dai-Zheng Liao"
_chemical_name_systematic
;
tris(Acetylacetonato-O,O')-(3,4,7,8-tetramethyl-1,10-phenanthroline)-dysprosiu
m dihydrate
;
_cell_volume   1569.734
_exptl_crystal_colour 'yellow'
_exptl_crystal_density_diffrn 1.549
_exptl_crystal_description 'block'
_diffrn_ambient_temperature 293
#These two values have been output from a single CSD field.
_refine_ls_R_factor_gt 0.0239
_refine_ls_wR_factor_gt 0.0239
_symmetry_cell_setting triclinic
_symmetry_space_group_name_H-M 'P -1'
_symmetry_Int_Tables_number 2
loop_
_symmetry_equiv_pos_site_id
_symmetry_equiv_pos_as_xyz
1 x,y,z
2 -x,-y,-z
_cell_length_a 10.6421(9)
_cell_length_b 11.4005(8)
_cell_length_c 14.6562(8)
_cell_angle_alpha 83.765(5)
_cell_angle_beta 72.402(6)
_cell_angle_gamma 67.841(7)
_cell_formula_units_Z 2
loop_
_atom_type_symbol
_atom_type_radius_bond
C 0.68
H 0.23
Dy 1.92
N 0.68
O 0.68
loop_
_atom_site_label
_atom_site_type_symbol
_atom_site_fract_x
_atom_site_fract_y
_atom_site_fract_z
C1 C 0.0227(3) 0.3453(3) 0.6087(2)
H1 H -0.05030 0.38110 0.66330
C2 C -0.0136(3) 0.3461(3) 0.5238(2)
C3 C -0.1681(3) 0.4076(3) 0.5263(2)
H2 H -0.17720 0.46430 0.47330
H3 H -0.22100 0.45410 0.58510
H4 H -0.20410 0.34340 0.52220
C4 C 0.0926(3) 0.2898(3) 0.4426(2)
C5 C 0.0548(4) 0.2846(3) 0.3520(2)
H5 H -0.02280 0.25550 0.36680
H6 H 0.13510 0.22740 0.30710
H7 H 0.02820 0.36760 0.32460
C6 C 0.2343(3) 0.2393(3) 0.4479(2)
C7 C 0.2597(3) 0.2452(2) 0.5364(2)
C8 C 0.4017(3) 0.1940(2) 0.54485(19)
C9 C 0.3555(3) 0.1810(3) 0.3686(2)
H8 H 0.34160 0.17360 0.31020
C10 C 0.4888(3) 0.1368(3) 0.3762(2)
H9 H 0.56390 0.10150 0.32260
C11 C 0.5180(3) 0.1427(2) 0.4646(2)
C12 C 0.6577(3) 0.0998(3) 0.4750(2)
C13 C 0.6714(3) 0.1081(3) 0.5644(2)
C14 C 0.5490(3) 0.1563(3) 0.6403(2)
H10 H 0.56060 0.15940 0.70030
C15 C 0.8126(3) 0.0647(3) 0.5850(2)
H11 H 0.86700 -0.02080 0.56260
H12 H 0.79810 0.06830 0.65270
H13 H 0.86270 0.11890 0.55270
C16 C 0.7855(3) 0.0463(3) 0.3906(2)
H14 H 0.86990 0.03040 0.40890
H15 H 0.78120 0.10590 0.33910
H16 H 0.78690 -0.03150 0.37030
C17 C 0.3748(4) 0.6021(4) 0.6328(3)
H17 H 0.39180 0.57350 0.56940
H18 H 0.45290 0.62320 0.63540
H19 H 0.28950 0.67570 0.64840
C18 C 0.3595(3) 0.4985(3) 0.7036(2)
C19 C 0.4526(3) 0.4555(3) 0.7606(2)
H20 H 0.51960 0.49250 0.75230
C20 C 0.4507(3) 0.3610(3) 0.8286(2)
C21 C 0.5504(3) 0.3273(3) 0.8900(2)
H21 H 0.49780 0.35690 0.95420
H22 H 0.61930 0.36640 0.86460
H23 H 0.59750 0.23700 0.89020
C22 C 0.3722(3) -0.1198(3) 0.9055(2)
H24 H 0.45800 -0.15820 0.85590
H25 H 0.32850 -0.18100 0.93050
H26 H 0.39350 -0.09050 0.95600
C23 C 0.2718(3) -0.0087(3) 0.86492(19)
C24 C 0.1359(3) -0.0071(3) 0.8774(2)
H27 H 0.10940 -0.06930 0.91560
C25 C 0.0370(3) 0.0823(3) 0.8359(2)
C26 C -0.0976(3) 0.0610(3) 0.8436(3)
H28 H -0.16890 0.13980 0.83450
H29 H -0.12980 0.02810 0.90570
H30 H -0.07960 0.00150 0.79530
C27 C -0.0622(3) 0.3199(3) 1.1024(2)
H31 H -0.00320 0.23450 1.11170
H32 H -0.15980 0.32960 1.12920
H33 H -0.04170 0.37750 1.13360
C28 C -0.0335(3) 0.3483(3) 0.9963(2)
C29 C -0.1454(3) 0.4283(3) 0.9616(2)
H34 H -0.23620 0.45090 1.00340
C30 C -0.1313(3) 0.4763(3) 0.8696(2)
C31 C -0.2604(3) 0.5724(3) 0.8451(2)
H35 H -0.26560 0.65640 0.85440
H36 H -0.34400 0.56020 0.88590
H37 H -0.25350 0.56160 0.77950
Dy1 Dy 0.202182(13) 0.286115(11) 0.779055(9)
N1 N 0.1536(2) 0.2972(2) 0.61632(16)
N2 N 0.4175(2) 0.1979(2) 0.63377(16)
O1 O 0.2625(2) 0.45899(18) 0.70701(14)
O2 O 0.3695(2) 0.29920(18) 0.84421(14)
O3 O 0.3196(2) 0.07506(17) 0.82109(13)
O4 O 0.0534(2) 0.17706(18) 0.78882(14)
O5 O -0.0153(2) 0.44887(18) 0.80326(14)
O6 O 0.0936(2) 0.29837(19) 0.94455(14)
O7 O 0.3156(2) 0.1621(2) 0.02575(15)
H38 H 0.24410 0.21280 0.00530
H39 H 0.38100 0.17890 -0.02610
O8 O 0.6225(3) 1.0061(3) 0.82685(18)
H40 H 0.63950 0.94970 0.87680
H41 H 0.52540 1.02590 0.83780
#END

data_CSD_CIF_HUCJEW
_audit_creation_date 2015-02-25
_audit_creation_method CSD-ConQuest-V1
_database_code_CSD HUCJEW
_database_code_depnum_ccdc_archive 'CCDC 966774'
_chemical_formula_sum 'C39 H37 Er1 N2 O6'
_chemical_formula_moiety
;
C39 H37 Er1 N2 O6
;
_journal_coden_Cambridge 862
_journal_volume 162
_journal_year 2015
_journal_page_first 41
_journal_name_full 'J.Lumin. '
loop_
_publ_author_name
"P.Martin-Ramos"
"P.S.P.Silva"
"P.Chamorro-Posada"
"M.R.Silva"
"B.F.Milne"
"F.Nogueira"
"J.Martin-Gil"
_chemical_name_systematic
;
tris(acetylacetonato)-(4,7-diphenyl-1,10-phenanthroline)-erbium(iii)
;
_cell_volume   1806.054
_exptl_crystal_colour 'pink'
_exptl_crystal_density_diffrn 1.466
_exptl_crystal_description 'hexagonal prism'
_diffrn_ambient_temperature 293
#These two values have been output from a single CSD field.
_refine_ls_R_factor_gt 0.0276
_refine_ls_wR_factor_gt 0.0276
_symmetry_cell_setting triclinic
_symmetry_space_group_name_H-M 'P -1'
_symmetry_Int_Tables_number 2
loop_
_symmetry_equiv_pos_site_id
_symmetry_equiv_pos_as_xyz
1 x,y,z
2 -x,-y,-z
_cell_length_a 11.8685(2)
_cell_length_b 12.1053(3)
_cell_length_c 14.2355(3)
_cell_angle_alpha 96.663(1)
_cell_angle_beta 105.008(1)
_cell_angle_gamma 110.177(1)
_cell_formula_units_Z 2
loop_
_atom_type_symbol
_atom_type_radius_bond
C 0.68
H 0.23
Er 1.89
N 0.68
O 0.68
loop_
_atom_site_label
_atom_site_type_symbol
_atom_site_fract_x
_atom_site_fract_y
_atom_site_fract_z
Er1 Er 0.764203(9) 0.553415(9) 0.221213(8)
C1 C 1.1274(3) 0.7773(4) 0.4858(3)
H1 H 1.13590 0.71000 0.51220
H2 H 1.15080 0.84470 0.53980
H3 H 1.18190 0.79920 0.44570
C2 C 0.9917(3) 0.7425(3) 0.4223(2)
C3 C 0.9196(3) 0.8006(3) 0.4497(2)
H4 H 0.95330 0.85350 0.51210
C4 C 0.7998(3) 0.7850(3) 0.3901(2)
C5 C 0.7327(5) 0.8562(4) 0.4267(3)
H5 H 0.72220 0.91040 0.38410
H6 H 0.78160 0.90190 0.49360
H7 H 0.65100 0.80220 0.42570
C6 C 0.6558(4) 0.4301(4) 0.4913(3)
H8 H 0.70670 0.38280 0.49850
H9 H 0.57630 0.38610 0.50020
H10 H 0.69940 0.50490 0.54060
C7 C 0.6322(3) 0.4560(3) 0.3883(2)
C8 C 0.5170(3) 0.4614(3) 0.3406(3)
H11 H 0.45840 0.44910 0.37490
C9 C 0.4820(3) 0.4835(2) 0.2461(2)
C10 C 0.3566(3) 0.4954(3) 0.2094(3)
H12 H 0.36410 0.55540 0.17020
H13 H 0.33270 0.51920 0.26550
H14 H 0.29310 0.41920 0.16910
C11 C 1.0861(3) 0.6423(4) 0.0804(4)
H15 H 1.15170 0.71790 0.11980
H16 H 1.08250 0.63570 0.01180
H17 H 1.10400 0.57710 0.10400
C12 C 0.9594(3) 0.6365(3) 0.0896(2)
C13 C 0.8973(3) 0.7004(3) 0.0368(3)
H18 H 0.93390 0.74200 -0.00580
C14 C 0.7855(3) 0.7060(2) 0.0433(2)
C15 C 0.7284(4) 0.7792(3) -0.0171(3)
H19 H 0.64910 0.72630 -0.06600
H20 H 0.78530 0.82150 -0.05020
H21 H 0.71450 0.83630 0.02640
C16 C 0.9427(3) 0.3992(3) 0.3186(2)
H22 H 0.96930 0.46410 0.37230
C17 C 1.0047(3) 0.3206(3) 0.3264(2)
H23 H 1.07110 0.33390 0.38390
C18 C 0.9684(3) 0.2229(2) 0.2492(2)
C19 C 0.8679(2) 0.2076(2) 0.16283(19)
C20 C 0.8112(2) 0.2926(2) 0.16174(18)
C21 C 0.7100(2) 0.2813(2) 0.07479(18)
C22 C 0.5219(3) 0.2665(3) -0.0899(2)
H24 H 0.45730 0.26470 -0.14430
C23 C 0.5697(2) 0.1791(2) -0.09379(19)
C24 C 0.5702(3) 0.3589(3) -0.0037(2)
H25 H 0.53630 0.41760 -0.00320
C25 C 0.6670(2) 0.1848(2) -0.00813(18)
C26 C 0.7289(3) 0.1022(2) -0.0047(2)
H26 H 0.70250 0.03910 -0.05980
C27 C 0.8242(3) 0.1133(2) 0.0759(2)
H27 H 0.86270 0.05820 0.07500
C28 C 1.0330(3) 0.1370(2) 0.2570(2)
C29 C 1.1598(3) 0.1778(3) 0.2710(3)
H28 H 1.20560 0.25940 0.27680
C30 C 1.2213(4) 0.0976(5) 0.2769(4)
H29 H 1.30770 0.12570 0.28600
C31 C 1.1540(5) -0.0222(4) 0.2692(3)
H30 H 1.19430 -0.07590 0.27150
C32 C 1.0288(4) -0.0627(3) 0.2583(3)
H31 H 0.98430 -0.14360 0.25570
C33 C 0.9666(3) 0.0156(3) 0.2509(2)
H32 H 0.88020 -0.01330 0.24190
C34 C 0.5260(2) 0.0841(3) -0.1864(2)
C35 C 0.5554(4) 0.1160(3) -0.2685(2)
H33 H 0.60000 0.19680 -0.26630
C36 C 0.5196(4) 0.0295(4) -0.3555(3)
H34 H 0.54120 0.05210 -0.41070
C37 C 0.4528(4) -0.0886(4) -0.3593(3)
H35 H 0.42760 -0.14660 -0.41770
C38 C 0.4230(4) -0.1218(4) -0.2794(4)
H36 H 0.37790 -0.20270 -0.28240
C39 C 0.4593(4) -0.0352(3) -0.1919(3)
H37 H 0.43800 -0.05870 -0.13690
O1 O 0.74326(19) 0.71609(18) 0.30498(15)
O2 O 0.95411(18) 0.66088(17) 0.34421(16)
O3 O 0.7209(2) 0.4718(2) 0.35268(16)
O4 O 0.54835(17) 0.49616(18) 0.18851(14)
N1 N 0.66130(19) 0.36773(18) 0.07685(15)
N2 N 0.8484(2) 0.38736(18) 0.23967(16)
O5 O 0.72533(17) 0.65319(17) 0.09732(15)
O6 O 0.91980(19) 0.5752(2) 0.14664(17)
#END

data_CSD_CIF_ISEBIS
_audit_creation_date 2011-08-04
_audit_creation_method CSD-ConQuest-V1
_database_code_CSD ISEBIS
_database_code_depnum_ccdc_archive 'CCDC 801063'
_chemical_formula_sum 'C27 H29 Dy1 N2 O6'
_chemical_formula_moiety
;
C27 H29 Dy1 N2 O6
;
_journal_coden_Cambridge 222
_journal_volume 40
_journal_year 2011
_journal_page_first 5579
_journal_name_full 'Dalton Trans. '
loop_
_publ_author_name
"Gong-Jun Chen"
"Chun-Yan Gao"
"Jin-Lei Tian"
"Jinkui Tang"
"Wen Gu"
"Xin Liu"
"Shi-Ping Yan"
"Dai-Zheng Liao"
"Peng Cheng"
_chemical_name_systematic
;
tris(acetylacetonato)-(1,10-phenanthroline)-dysprosium(iii)
;
_cell_volume   2902.423
_exptl_crystal_colour 'colorless'
_exptl_crystal_density_diffrn 1.465
_exptl_crystal_description 'prism'
_diffrn_ambient_temperature 293
#These two values have been output from a single CSD field.
_refine_ls_R_factor_gt 0.0396
_refine_ls_wR_factor_gt 0.0396
_symmetry_cell_setting monoclinic
_symmetry_space_group_name_H-M 'P 21/c'
_symmetry_Int_Tables_number 14
loop_
_symmetry_equiv_pos_site_id
_symmetry_equiv_pos_as_xyz
1 x,y,z
2 -x,1/2+y,1/2-z
3 -x,-y,-z
4 x,-1/2-y,-1/2+z
_cell_length_a 9.5010(19)
_cell_length_b 21.015(4)
_cell_length_c 16.246(5)
_cell_angle_alpha 90
_cell_angle_beta 116.52(2)
_cell_angle_gamma 90
_cell_formula_units_Z 4
loop_
_atom_type_symbol
_atom_type_radius_bond
C 0.68
H 0.23
Dy 1.92
N 0.68
O 0.68
loop_
_atom_site_label
_atom_site_type_symbol
_atom_site_fract_x
_atom_site_fract_y
_atom_site_fract_z
Dy1 Dy 0.76142(2) 0.846645(8) 0.340635(12)
O1 O 0.8264(4) 0.95364(13) 0.3477(2)
O2 O 0.7142(3) 0.89093(13) 0.45597(19)
O3 O 0.7568(4) 0.86539(14) 0.1988(2)
O4 O 0.5135(4) 0.88845(14) 0.2459(2)
O5 O 0.8349(4) 0.75033(13) 0.2999(2)
O6 O 0.5931(3) 0.76897(13) 0.3477(2)
N1 N 1.0572(4) 0.85097(14) 0.3895(2)
N2 N 0.9421(4) 0.79234(14) 0.4952(2)
C1 C 1.1149(6) 0.8809(2) 0.3400(3)
H1 H 1.04740 0.90610 0.29140
C2 C 1.2724(6) 0.8767(3) 0.3568(4)
H2 H 1.30790 0.89840 0.31970
C3 C 1.3711(6) 0.8408(2) 0.4269(4)
H3 H 1.47570 0.83700 0.43810
C4 C 1.3181(5) 0.8094(2) 0.4832(3)
C5 C 1.4171(6) 0.7722(3) 0.5618(4)
H4 H 1.52260 0.76710 0.57560
C6 C 1.3623(7) 0.7446(3) 0.6157(4)
H5 H 1.43050 0.72150 0.66690
C7 C 1.1994(7) 0.7499(2) 0.5958(3)
C8 C 1.1363(8) 0.7244(3) 0.6518(4)
H6 H 1.20050 0.70120 0.70380
C9 C 0.9848(8) 0.7332(2) 0.6312(4)
H7 H 0.94370 0.71720 0.66930
C10 C 0.8891(6) 0.7670(2) 0.5513(3)
H8 H 0.78330 0.77200 0.53670
C11 C 1.0961(5) 0.78480(18) 0.5182(3)
C12 C 1.1579(5) 0.81549(19) 0.4616(3)
C13 C 0.8418(8) 1.0652(2) 0.3554(4)
H9 H 0.94400 1.07920 0.39950
H10 H 0.76440 1.09600 0.35130
H11 H 0.84070 1.06050 0.29630
C14 C 0.8046(6) 1.0021(2) 0.3854(3)
C15 C 0.7535(6) 1.0008(2) 0.4530(4)
H12 H 0.74300 1.03960 0.47730
C16 C 0.7172(5) 0.9467(2) 0.4869(3)
C17 C 0.6810(6) 0.9499(3) 0.5690(3)
H13 H 0.58890 0.92510 0.55660
H14 H 0.66260 0.99340 0.57980
H15 H 0.76860 0.93340 0.62250
C18 C 0.7600(9) 0.9233(3) 0.0748(4)
H16 H 0.82580 0.96000 0.09920
H17 H 0.67980 0.93250 0.01410
H18 H 0.82260 0.88820 0.07230
C19 C 0.6836(7) 0.9061(3) 0.1366(3)
C20 C 0.5444(7) 0.9349(3) 0.1233(4)
H19 H 0.49950 0.96360 0.07500
C21 C 0.4669(7) 0.9241(3) 0.1765(4)
C22 C 0.3082(8) 0.9581(4) 0.1517(5)
H20 H 0.22450 0.92750 0.12940
H21 H 0.28980 0.98940 0.10490
H22 H 0.31190 0.97860 0.20550
C23 C 0.9305(10) 0.6463(2) 0.3061(6)
H23 H 0.90580 0.64060 0.24240
H24 H 0.92330 0.60610 0.33210
H25 H 1.03540 0.66270 0.33870
C24 C 0.8166(7) 0.6923(2) 0.3138(3)
C25 C 0.6972(8) 0.6709(2) 0.3350(4)
H26 H 0.68960 0.62720 0.34130
C26 C 0.5909(6) 0.7085(2) 0.3472(3)
C27 C 0.4592(7) 0.6778(3) 0.3606(5)
H27 H 0.47960 0.68180 0.42380
H28 H 0.45250 0.63360 0.34450
H29 H 0.36170 0.69850 0.32210
#END

data_CSD_CIF_JIPFUJ
_audit_creation_date 1991-11-25
_audit_creation_method CSD-ConQuest-V1
_database_code_CSD JIPFUJ
_chemical_formula_sum 'C25 H29 N2 O6 Yb1'
_chemical_formula_moiety
;
C25 H29 N2 O6 Yb1
;
_journal_coden_Cambridge 233
_journal_volume 35
_journal_year 1990
_journal_page_first 1471
_journal_name_full 'Zh.Neorg.Khim.(Russ.)(Russ.J.Inorg.Chem.) '
loop_
_publ_author_name
"N.G.Dzyubenko"
"E.F.Kortnyi"
"L.I.Martynenko"
"L.A.Aslanov"
_chemical_name_systematic
;
tris(Acetylacetonato)-2,2'-bipyridyl-ytterbium
;
_cell_volume   5356.263
_exptl_crystal_colour 'colorless'
_exptl_crystal_density_diffrn 1.554
_exptl_special_details
;
z(O3) is 0.7437 not 0.7473. y(O9) is 0.2966 not 0.2662

;
_diffrn_ambient_temperature ?
_diffrn_special_details
;
The study was carried out at room temperature,in the range 283-303K

;
#These two values have been output from a single CSD field.
_refine_ls_R_factor_gt 0.108
_refine_ls_wR_factor_gt 0.108
_symmetry_cell_setting monoclinic
_symmetry_space_group_name_H-M 'P 21/c'
_symmetry_Int_Tables_number 14
loop_
_symmetry_equiv_pos_site_id
_symmetry_equiv_pos_as_xyz
1 x,y,z
2 -x,1/2+y,1/2-z
3 -x,-y,-z
4 x,-1/2-y,-1/2+z
_cell_length_a 18.8024(68)
_cell_length_b 13.4068(54)
_cell_length_c 22.5605(94)
_cell_angle_alpha 90
_cell_angle_beta 109.638(40)
_cell_angle_gamma 90
_cell_formula_units_Z 8
loop_
_atom_type_symbol
_atom_type_radius_bond
C 0.68
N 0.68
O 0.68
Yb 1.94
loop_
_atom_site_label
_atom_site_type_symbol
_atom_site_fract_x
_atom_site_fract_y
_atom_site_fract_z
Yb1 Yb 0.11929(6) 0.17312(7) 0.65169(5)
Yb2 Yb 0.60751(6) 0.18410(7) 0.65799(5)
O1 O 0.1647(8) 0.0434(1) 0.6138(7)
O2 O 0.0544(1) 0.1655(2) 0.5475(7)
O3 O 0.1021(9) 0.2239(11) 0.7437(8)
O4 O 0.2334(9) 0.1576(11) 0.7273(7)
O5 O 0.1943(10) 0.2591(13) 0.6086(8)
O6 O 0.0687(9) 0.3293(10) 0.6346(7)
O7 O 0.6605(8) 0.0791(11) 0.6087(6)
O8 O 0.5328(10) 0.1751(11) 0.5555(7)
O9 O 0.6647(9) 0.2966(11) 0.6165(8)
O10 O 0.5392(9) 0.324(1) 0.6452(7)
O11 O 0.5939(10) 0.2198(10) 0.7542(7)
O12 O 0.7252(9) 0.1911(11) 0.7311(7)
N1 N -0.0149(11) 0.1391(15) 0.6385(9)
N2 N 0.0946(9) 0.0179(3) 0.7069(8)
N3 N 0.620(1) 0.0164(12) 0.7108(8)
N4 N 0.4875(9) 0.0995(13) 0.6574(8)
C1 C 0.1561(12) 0.0061(17) 0.5613(10)
C2 C 0.1081(13) 0.0404(18) 0.5046(10)
C3 C 0.0566(12) 0.1180(17) 0.5017(10)
C4 C 0.2035(17) -0.0897(20) 0.5599(12)
C5 C 0.0044(14) 0.1491(22) 0.4383(11)
C6 C 0.1501(15) 0.2088(21) 0.8041(11)
C7 C 0.2187(18) 0.1881(23) 0.8239(13)
C8 C 0.2605(14) 0.1612(17) 0.7863(11)
C9 C 0.102(2) 0.2388(28) 0.8475(14)
C10 C 0.3364(19) 0.1304(26) 0.8156(13)
C11 C 0.1805(15) 0.3364(20) 0.5725(10)
C12 C 0.1304(14) 0.4077(24) 0.5728(12)
C13 C 0.0754(16) 0.3976(19) 0.5997(12)
C14 C 0.2469(19) 0.3531(26) 0.5429(14)
C15 C 0.0184(14) 0.4842(20) 0.5922(12)
C16 C -0.0752(13) 0.1957(20) 0.5976(12)
C17 C -0.1411(18) 0.1951(22) 0.6043(14)
C18 C -0.1597(15) 0.1287(24) 0.6444(14)
C19 C -0.1034(13) 0.0704(12) 0.6837(13)
C20 C -0.0343(14) 0.0734(18) 0.6763(11)
C21 C 0.0252(15) 0.0082(17) 0.7118(11)
C22 C 0.0099(20) -0.0709(22) 0.7494(14)
C23 C 0.0715(19) -0.1305(28) 0.7791(15)
C24 C 0.1377(15) -0.1202(20) 0.7713(12)
C25 C 0.1516(15) -0.0420(18) 0.7377(11)
C26 C 0.6511(12) 0.0418(17) 0.5584(11)
C27 C 0.5925(15) 0.071(2) 0.5028(13)
C28 C 0.5344(14) 0.1375(19) 0.5042(10)
C29 C 0.7009(17) -0.0376(21) 0.5476(21)
C30 C 0.4712(20) 0.1699(26) 0.4455(13)
C31 C 0.6437(12) 0.3635(19) 0.5825(10)
C32 C 0.5881(15) 0.4200(17) 0.5808(12)
C33 C 0.5312(14) 0.3975(19) 0.6076(11)
C34 C 0.7052(14) 0.4129(21) 0.5549(14)
C35 C 0.4584(20) 0.4631(22) 0.5987(15)
C36 C 0.6326(11) 0.2058(16) 0.8099(10)
C37 C 0.7077(19) 0.1983(20) 0.8281(12)
C38 C 0.7518(10) 0.1871(16) 0.7891(11)
C39 C 0.5951(18) 0.2295(21) 0.8595(13)
C40 C 0.8321(21) 0.1669(29) 0.8181(16)
C41 C 0.6888(13) -0.0249(17) 0.7304(12)
C42 C 0.7059(15) -0.1138(19) 0.7662(11)
C43 C 0.6453(16) -0.1545(20) 0.7799(12)
C44 C 0.5744(44) -0.1160(19) 0.7588(10)
C45 C 0.5681(12) -0.0275(16) 0.7251(10)
C46 C 0.4908(12) 0.0171(15) 0.6955(10)
C47 C 0.4249(14) -0.0140(19) 0.7054(11)
C48 C 0.3555(12) 0.0301(18) 0.6748(11)
C49 C 0.3491(14) 0.1108(20) 0.6341(12)
C50 C 0.4218(12) 0.1408(17) 0.6287(10)
#END

data_CSD_CIF_MUWYAE
_audit_creation_date 2003-06-25
_audit_creation_method CSD-ConQuest-V1
_database_code_CSD MUWYAE
_chemical_formula_sum 'C36 H47 Eu1 N2 O6'
_chemical_formula_moiety
;
C36 H47 Eu1 N2 O6
;
_journal_coden_Cambridge 1183
_journal_volume 323
_journal_year 2001
_journal_page_first 177
_journal_name_full 'J.Alloys Compd. '
loop_
_publ_author_name
"L.C.Thompson"
"S.Berry"
_chemical_name_systematic
;
tris(6-Methyl-2,4-heptanedionato-O,O')-(1,10-phenanthroline)-europium(iii)
;
_chemical_melting_point 459.15
_cell_volume   3689.966
_exptl_crystal_density_diffrn 1.36
_exptl_special_details
;
Melting point range 459.15-460.15K
photoluminescent
No reply to request for data
;
_exptl_crystal_preparation 'dichloromethane/isopropanol'
_diffrn_ambient_temperature 297
_refine_special_details
;
The isopropanol group of molecule A is disordered over two sites with 
0.57:0.43 occupancies.
;
#These two values have been output from a single CSD field.
_refine_ls_R_factor_gt 0.04
_refine_ls_wR_factor_gt 0.04
_symmetry_cell_setting monoclinic
_symmetry_space_group_name_H-M 'P 21/n'
_symmetry_Int_Tables_number 14
_cell_length_a 9.822(6)
_cell_length_b 24.592(6)
_cell_length_c 15.277(6)
_cell_angle_alpha 90
_cell_angle_beta 90.38(4)
_cell_angle_gamma 90
_cell_formula_units_Z 4
#END

data_CSD_CIF_NAVYAK
_audit_creation_date 1998-03-31
_audit_creation_method CSD-ConQuest-V1
_database_code_CSD NAVYAK
_chemical_formula_sum 'C27 H29 La1 N2 O6'
_chemical_formula_moiety
;
C27 H29 La1 N2 O6
;
_journal_coden_Cambridge 367
_journal_volume 23
_journal_year 1997
_journal_page_first 450
_journal_name_full 'Koord.Khim.(Russ.)(Coord.Chem.) '
loop_
_publ_author_name
"N.P.Kuz'mina"
"N.V.Chugarov"
"A.P.Pisarevsky"
"L.I.Martynenko"
_chemical_name_systematic
;
tris(Acetylacetonato)-(1,10-phenanthroline)-lanthanum
;
_cell_volume   5547.944
_exptl_crystal_density_diffrn 1.476
_diffrn_ambient_temperature ?
_diffrn_special_details
;
The study was carried out at room temperature,in the range 283-303K

;
#These two values have been output from a single CSD field.
_refine_ls_R_factor_gt 0.069
_refine_ls_wR_factor_gt 0.069
_symmetry_cell_setting monoclinic
_symmetry_space_group_name_H-M 'P 21/n'
_symmetry_Int_Tables_number 14
loop_
_symmetry_equiv_pos_site_id
_symmetry_equiv_pos_as_xyz
1 x,y,z
2 1/2-x,1/2+y,1/2-z
3 -x,-y,-z
4 -1/2+x,-1/2-y,-1/2+z
_cell_length_a 17.11(12)
_cell_length_b 18.16(3)
_cell_length_c 17.86(2)
_cell_angle_alpha 90
_cell_angle_beta 91.32(2)
_cell_angle_gamma 90
_cell_formula_units_Z 8
loop_
_atom_type_symbol
_atom_type_radius_bond
C 0.68
La 1.87
N 0.68
O 0.68
loop_
_atom_site_label
_atom_site_type_symbol
_atom_site_fract_x
_atom_site_fract_y
_atom_site_fract_z
La1 La 1.2207(1) 0.1478(1) 0.7857(1)
O1 O 1.3247(7) 0.0552(6) 0.7953(6)
O2 O 1.3435(7) 0.2043(5) 0.8422(6)
O3 O 1.1839(6) 0.1017(6) 0.9097(6)
O4 O 1.1532(7) 0.2447(6) 0.8570(6)
O5 O 1.1489(6) 0.0378(5) 0.7489(6)
O6 O 1.1080(7) 0.1793(5) 0.7001(6)
N1 N 1.2575(9) 0.2647(6) 0.7035(7)
N2 N 1.2793(7) 0.1298(5) 0.6458(7)
C1 C 1.4370(11) -0.0184(10) 0.8056(9)
C2 C 1.3941(10) 0.0527(7) 0.8138(8)
C3 C 1.4387(10) 0.1128(8) 0.8389(11)
C4 C 1.4149(10) 0.1824(9) 0.8508(9)
C5 C 1.4647(10) 0.2451(9) 0.8794(10)
C6 C 1.1387(13) 0.0711(11) 1.0245(11)
C7 C 1.1531(10) 0.1252(10) 0.9644(10)
C8 C 1.1207(11) 0.1963(10) 0.9728(10)
C9 C 1.1201(10) 0.2496(9) 0.9199(9)
C10 C 1.0884(12) 0.3252(9) 0.9354(12)
C11 C 1.0569(11) -0.0580(9) 0.7221(11)
C12 C 1.0844(11) 0.0230(7) 0.7159(9)
C13 C 1.0374(9) 0.0694(8) 0.6743(9)
C14 C 1.0512(11) 0.1434(10) 0.6694(9)
C15 C 0.9946(10) 0.1932(10) 0.6222(10)
C16 C 1.2510(11) 0.3318(9) 0.7293(10)
C17 C 1.2570(14) 0.4005(11) 0.6902(13)
C18 C 1.2874(13) 0.3902(10) 0.6256(13)
C19 C 1.3025(9) 0.3241(12) 0.5881(11)
C20 C 1.3262(14) 0.3160(15) 0.5164(14)
C21 C 1.3314(12) 0.2521(12) 0.4858(11)
C22 C 1.3204(10) 0.1814(13) 0.5248(9)
C23 C 1.3305(13) 0.1123(13) 0.5007(11)
C24 C 1.3154(12) 0.0510(12) 0.5443(12)
C25 C 1.2892(10) 0.0617(9) 0.6170(8)
C26 C 1.2950(9) 0.1859(10) 0.6049(10)
C27 C 1.2838(9) 0.2603(9) 0.6334(9)
La2 La 0.7122(1) 0.1097(1) 0.7747(1)
O7 O 0.7907(7) 0.2204(6) 0.7736(6)
O8 O 0.8405(6) 0.0895(6) 0.8375(6)
O9 O 0.6761(7) 0.0049(7) 0.8540(6)
O10 O 0.6586(7) 0.1543(6) 0.8919(6)
O11 O 0.6142(6) 0.1982(5) 0.7258(6)
O12 O 0.6168(6) 0.0477(5) 0.6916(6)
N3 N 0.7737(7) 0.1238(5) 0.6315(6)
N4 N 0.7855(7) -0.0067(7) 0.7055(7)
C28 C 0.8896(11) 0.3129(10) 0.761(1)
C29 C 0.8607(11) 0.2371(7) 0.7819(8)
C30 C 0.9224(9) 0.1889(8) 0.8098(8)
C31 C 0.9058(10) 0.1187(8) 0.8360(7)
C32 C 0.9755(12) 0.0724(10) 0.8711(10)
C33 C 0.6396(11) -0.0829(9) 0.947(1)
C34 C 0.6513(12) -0.0065(9) 0.9182(12)
C35 C 0.6319(12) 0.0495(10) 0.9666(10)
C36 C 0.6384(11) 0.1219(12) 0.9565(9)
C37 C 0.6125(12) 0.1814(11) 1.0147(9)
C38 C 0.5088(10) 0.2697(9) 0.6753(10)
C39 C 0.5550(11) 0.1981(8) 0.6840(8)
C40 C 0.5268(10) 0.1352(9) 0.6457(9)
C41 C 0.5555(9) 0.0621(9) 0.6508(9)
C42 C 0.518(1) 0.0005(8) 0.6100(9)
C43 C 0.7620(11) 0.1869(9) 0.5949(10)
C44 C 0.7868(10) 0.1984(10) 0.5206(9)
C45 C 0.8253(14) 0.1391(11) 0.4916(11)
C46 C 0.8355(10) 0.0753(11) 0.5245(11)
C47 C 0.8723(12) 0.0178(11) 0.4904(10)
C48 C 0.8822(11) -0.0454(12) 0.5233(10)
C49 C 0.8506(10) -0.0602(10) 0.5995(12)
C50 C 0.8504(12) -0.1244(12) 0.6366(11)
C51 C 0.8239(10) -0.1336(7) 0.7068(12)
C52 C 0.7936(10) -0.0715(8) 0.7371(11)
C53 C 0.8138(10) -0.0006(8) 0.6362(10)
C54 C 0.8101(10) 0.0694(8) 0.5999(8)
#END

data_CSD_CIF_PEKWEH
_audit_creation_date 1998-11-04
_audit_creation_method CSD-ConQuest-V1
_database_code_CSD PEKWEH
_database_code_depnum_ccdc_archive 'CCDC 130424'
_chemical_formula_sum 'C27 H29 Ce1 N2 O6'
_chemical_formula_moiety
;
C27 H29 Ce1 N2 O6
;
_journal_coeditor_code "IUCr NA1347"
_journal_coden_Cambridge 591
_journal_volume 54
_journal_year 1998
_journal_page_first 1233
_journal_name_full 'Acta Crystallogr.,Sect.C:Cryst.Struct.Commun. '
loop_
_publ_author_name
"P.C.Christidis"
"I.A.Tossidis"
"D.G.Paschalidis"
"L.C.Tzavellas"
_chemical_name_systematic
;
tris(Acetylacetonato)-(1,10-phenanthroline)-cerium(iii)
;
_cell_volume   5496.494
_exptl_crystal_colour 'orange'
_exptl_crystal_density_diffrn 1.493
_exptl_special_details
;
as a rare earth complex, of importance for possible biochemical and medicinal 
activity
;
_exptl_crystal_description 'prism'
_exptl_crystal_preparation 'acetone'
_diffrn_ambient_temperature ?
_diffrn_special_details
;
The study was carried out at room temperature,in the range 283-303K

;
#These two values have been output from a single CSD field.
_refine_ls_R_factor_gt 0.043
_refine_ls_wR_factor_gt 0.043
_symmetry_cell_setting monoclinic
_symmetry_space_group_name_H-M 'P 21/n'
_symmetry_Int_Tables_number 14
loop_
_symmetry_equiv_pos_site_id
_symmetry_equiv_pos_as_xyz
1 x,y,z
2 1/2-x,1/2+y,1/2-z
3 -x,-y,-z
4 -1/2+x,-1/2-y,-1/2+z
_cell_length_a 16.912(1)
_cell_length_b 18.188(1)
_cell_length_c 17.872(1)
_cell_angle_alpha 90
_cell_angle_beta 91.009(4)
_cell_angle_gamma 90
_cell_formula_units_Z 8
loop_
_atom_type_symbol
_atom_type_radius_bond
C 0.68
H 0.23
Ce 1.83
N 0.68
O 0.68
loop_
_atom_site_label
_atom_site_type_symbol
_atom_site_fract_x
_atom_site_fract_y
_atom_site_fract_z
C1 C 0.9162(6) 0.5206(7) 0.7860(7)
C2 C 0.9619(7) 0.5702(7) 0.8257(7)
C3 C 0.9491(6) 0.6475(7) 0.8312(6)
C4 C 0.9415(8) 0.4414(7) 0.7804(10)
C5 C 1.0043(6) 0.6967(8) 0.8777(7)
C6 C 0.8516(7) 0.6249(9) 0.5347(7)
C7 C 0.8833(8) 0.6985(9) 0.5256(8)
C8 C 0.8793(8) 0.7529(9) 0.5808(8)
C9 C 0.8645(10) 0.5695(10) 0.4716(9)
C10 C 0.9173(11) 0.8251(9) 0.5659(9)
C11 C 0.5889(6) 0.6852(8) 0.6483(6)
C12 C 0.5586(7) 0.6150(8) 0.6596(7)
C13 C 0.5997(7) 0.5529(7) 0.6850(6)
C14 C 0.5333(7) 0.7459(8) 0.6215(9)
C15 C 0.5606(8) 0.4791(8) 0.6926(9)
C16 C 0.7537(9) 0.8334(6) 0.7695(9)
C17 C 0.736(1) 0.8957(8) 0.8122(12)
C18 C 0.7085(11) 0.8884(12) 0.8834(12)
C19 C 0.6972(8) 0.8215(10) 0.9138(10)
C20 C 0.7140(6) 0.7611(8) 0.8671(8)
C21 C 0.7044(6) 0.6881(8) 0.8995(7)
C22 C 0.6763(8) 0.6771(13) 0.9744(8)
C23 C 0.6598(15) 0.7375(17) 1.0199(13)
C24 C 0.6687(13) 0.8041(17) 0.9911(13)
C25 C 0.6704(10) 0.6071(15) 1.0039(9)
C26 C 0.6837(9) 0.5519(11) 0.9617(10)
C27 C 0.7112(8) 0.5613(8) 0.8848(8)
C28 C 1.4444(6) 0.5640(7) 0.8481(7)
C29 C 1.4722(7) 0.6344(8) 0.8544(6)
C30 C 1.4448(6) 0.6984(7) 0.8172(6)
C31 C 1.4812(8) 0.5019(9) 0.8910(8)
C32 C 1.4868(9) 0.7719(8) 0.8298(9)
C33 C 1.3612(7) 0.6262(11) 0.5451(7)
C34 C 1.3678(9) 0.5505(10) 0.5274(8)
C35 C 1.3530(8) 0.4967(9) 0.5792(8)
C36 C 1.3856(10) 0.6831(11) 0.4866(7)
C37 C 1.3701(13) 0.4182(10) 0.5562(10)
C38 C 1.0929(6) 0.6172(7) 0.6621(6)
C39 C 1.0781(6) 0.6908(7) 0.6893(6)
C40 C 1.1314(6) 0.7378(7) 0.7178(6)
C41 C 1.0266(7) 0.5693(8) 0.6288(7)
C42 C 1.1085(7) 0.8145(7) 0.7381(8)
C43 C 1.2072(7) 0.4290(7) 0.7604(8)
C44 C 1.1722(9) 0.3678(6) 0.7953(12)
C45 C 1.1443(9) 0.3756(10) 0.8646(11)
C46 C 1.1477(7) 0.4390(8) 0.9013(9)
C47 C 1.1859(6) 0.4992(7) 0.8639(7)
C48 C 1.1932(6) 0.5700(7) 0.9019(6)
C49 C 1.1625(8) 0.5779(9) 0.9776(7)
C50 C 1.1224(10) 0.5131(13) 1.009(1)
C51 C 1.1157(10) 0.4470(12) 0.973(1)
C52 C 1.1741(9) 0.6447(11) 1.0137(8)
C53 C 1.2083(8) 0.6990(9) 0.9791(8)
C54 C 1.2381(7) 0.6904(7) 0.9041(7)
N1 N 0.7402(5) 0.7658(5) 0.7982(6)
N2 N 0.7192(5) 0.6290(6) 0.8557(5)
N3 N 1.2131(5) 0.4944(4) 0.7944(5)
N4 N 1.2287(5) 0.6254(5) 0.8676(5)
O1 O 0.8540(4) 0.5379(4) 0.7530(5)
O2 O 0.8936(4) 0.6810(4) 0.7990(4)
O3 O 0.8159(5) 0.6019(5) 0.5915(5)
O4 O 0.8459(5) 0.7456(5) 0.6437(5)
O5 O 0.6609(5) 0.7028(4) 0.6574(5)
O6 O 0.6720(5) 0.5548(4) 0.7041(5)
O7 O 1.3858(4) 0.5478(4) 0.8069(5)
O8 O 1.3842(4) 0.7004(4) 0.7762(5)
O9 O 1.3413(5) 0.6534(5) 0.6074(5)
O10 O 1.3280(5) 0.5055(5) 0.6453(5)
O11 O 1.1612(4) 0.5875(4) 0.6625(4)
O12 O 1.2057(5) 0.7220(4) 0.7273(5)
Ce1 Ce 0.77931(3) 0.64775(3) 0.71522(3)
Ce2 Ce 1.28790(3) 0.60958(3) 0.72515(3)
H1 H 1.00655 0.55089 0.85206
H2 H 0.90804 0.71029 0.47983
H3 H 0.50379 0.60855 0.64895
H4 H 0.77485 0.83855 0.72087
H5 H 0.74322 0.94334 0.79164
H6 H 0.69708 0.93118 0.91182
H7 H 0.64276 0.73101 1.06978
H8 H 0.65583 0.84463 1.02221
H9 H 0.65656 0.60008 1.05467
H10 H 0.67573 0.50364 0.98048
H11 H 0.72336 0.51933 0.85548
H12 H 1.51564 0.64116 0.88815
H13 H 1.38289 0.53663 0.47843
H14 H 1.02492 0.70744 0.68665
H15 H 1.22723 0.42365 0.71137
H16 H 1.16854 0.32190 0.77010
H17 H 1.12121 0.33426 0.88826
H18 H 1.09988 0.51752 1.05717
H19 H 1.08957 0.40692 0.99603
H20 H 1.15709 0.65089 1.06368
H21 H 1.21379 0.74515 1.00366
H22 H 1.26425 0.73010 0.88050
#END

data_CSD_CIF_PELGOC
_audit_creation_date 1998-11-04
_audit_creation_method CSD-ConQuest-V1
_database_code_CSD PELGOC
_database_code_depnum_ccdc_archive 'CCDC 130425'
_chemical_formula_sum 'C27 H29 N2 O6 Pr1'
_chemical_formula_moiety
;
C27 H29 N2 O6 Pr1
;
_journal_coeditor_code "IUCr NA1347"
_journal_coden_Cambridge 591
_journal_volume 54
_journal_year 1998
_journal_page_first 1233
_journal_name_full 'Acta Crystallogr.,Sect.C:Cryst.Struct.Commun. '
loop_
_publ_author_name
"P.C.Christidis"
"I.A.Tossidis"
"D.G.Paschalidis"
"L.C.Tzavellas"
_chemical_name_systematic
;
tris(Acetylacetonato)-(1,10-phenanthroline)-praseodymium(iii)
;
_cell_volume   2964.819
_exptl_crystal_colour 'green'
_exptl_crystal_density_diffrn 1.385
_exptl_special_details
;
as a rare earth complex of importance for possible biochemical and medicinal 
activity
;
_exptl_crystal_description 'prism'
_exptl_crystal_preparation 'acetone'
_diffrn_ambient_temperature ?
_diffrn_special_details
;
The study was carried out at room temperature,in the range 283-303K

;
#These two values have been output from a single CSD field.
_refine_ls_R_factor_gt 0.043
_refine_ls_wR_factor_gt 0.043
_symmetry_cell_setting monoclinic
_symmetry_space_group_name_H-M 'P 21/n'
_symmetry_Int_Tables_number 14
loop_
_symmetry_equiv_pos_site_id
_symmetry_equiv_pos_as_xyz
1 x,y,z
2 1/2-x,1/2+y,1/2-z
3 -x,-y,-z
4 -1/2+x,-1/2-y,-1/2+z
_cell_length_a 9.515(1)
_cell_length_b 21.086(9)
_cell_length_c 14.978(2)
_cell_angle_alpha 90
_cell_angle_beta 99.39(1)
_cell_angle_gamma 90
_cell_formula_units_Z 4
loop_
_atom_type_symbol
_atom_type_radius_bond
C 0.68
H 0.23
N 0.68
O 0.68
Pr 1.82
loop_
_atom_site_label
_atom_site_type_symbol
_atom_site_fract_x
_atom_site_fract_y
_atom_site_fract_z
C1 C 0.5086(12) 0.8125(5) 0.3128(7)
C2 C 0.6476(14) 0.8352(5) 0.3367(8)
C3 C 0.7675(11) 0.7963(5) 0.3496(6)
C4 C 0.3830(19) 0.8602(6) 0.3064(13)
C5 C 0.9166(14) 0.8275(6) 0.3674(11)
C6 C 0.4526(10) 0.5952(5) 0.1311(6)
C7 C 0.5804(12) 0.5685(6) 0.1143(8)
C8 C 0.7141(11) 0.5807(6) 0.1656(8)
C9 C 0.3149(15) 0.5754(8) 0.0719(9)
C10 C 0.8492(15) 0.5504(10) 0.1354(13)
C11 C 0.5815(9) 0.4964(4) 0.3869(6)
C12 C 0.6998(11) 0.4985(5) 0.4571(7)
C13 C 0.7719(8) 0.5516(4) 0.4890(6)
C14 C 0.5113(16) 0.4337(5) 0.3575(10)
C15 C 0.8897(12) 0.5481(6) 0.5715(8)
C16 C 0.2254(7) 0.6229(4) 0.3370(5)
C17 C 0.0834(9) 0.6268(5) 0.3561(7)
C18 C 0.0578(8) 0.6592(6) 0.4288(7)
C19 C 0.1678(8) 0.6890(4) 0.4845(6)
C20 C 0.3077(7) 0.6848(3) 0.4614(4)
C21 C 0.4225(7) 0.7137(3) 0.5186(5)
C22 C 0.4016(11) 0.7457(4) 0.5987(6)
C23 C 0.2565(14) 0.7494(6) 0.6183(8)
C24 C 0.1476(12) 0.7225(6) 0.5646(9)
C25 C 0.5181(15) 0.7701(5) 0.6546(6)
C26 C 0.6509(12) 0.7648(5) 0.6327(6)
C27 C 0.6651(9) 0.7334(4) 0.5519(6)
N1 N 0.3323(5) 0.6522(3) 0.3883(3)
N2 N 0.5557(6) 0.7084(3) 0.4961(4)
O1 O 0.4735(6) 0.7563(3) 0.2976(4)
O2 O 0.7665(5) 0.7372(3) 0.3488(4)
O3 O 0.4431(6) 0.6342(3) 0.1929(3)
O4 O 0.7398(6) 0.6140(3) 0.2351(4)
O5 O 0.5283(6) 0.5444(3) 0.3456(4)
O6 O 0.7496(5) 0.6062(3) 0.4564(3)
Pr1 Pr 0.58718(3) 0.65508(2) 0.33746(2)
H1 H 0.66104 0.87961 0.34470
H2 H 0.57602 0.54021 0.06463
H3 H 0.73191 0.45931 0.48441
H4 H 0.24344 0.59873 0.28657
H5 H 0.00752 0.60659 0.31740
H6 H -0.03646 0.66158 0.44192
H7 H 0.23944 0.77161 0.67070
H8 H 0.05463 0.72552 0.57964
H9 H 0.50576 0.79090 0.70907
H10 H 0.73157 0.78187 0.67091
H11 H 0.75760 0.72978 0.53616
#END

data_CSD_CIF_QIVZIG
_audit_creation_date 2014-03-19
_audit_creation_method CSD-ConQuest-V1
_database_code_CSD QIVZIG
_database_code_depnum_ccdc_archive 'CCDC 973455'
_chemical_formula_sum 'C30 H34 Er1 N3 O8'
_chemical_formula_moiety
;
C30 H34 Er1 N3 O8
;
_journal_coden_Cambridge 222
_journal_volume 43
_journal_year 2014
_journal_page_first 6752
_journal_name_full 'Dalton Trans. '
loop_
_publ_author_name
"M.Ramos Silva"
"P.Martin-Ramos"
"J.T.Coutinho"
"L.C.J.Pereira"
"J.Martin-Gil"
_chemical_name_systematic
;
tris(2,4-hexanedionate)-(5-nitro-1,10-phenanthroline)-erbium(iii)
;
_cell_volume   3115.321
_exptl_crystal_colour 'yellow'
_exptl_crystal_density_diffrn 1.56
_exptl_crystal_description 'prism'
_diffrn_ambient_temperature 293
#These two values have been output from a single CSD field.
_refine_ls_R_factor_gt 0.0744
_refine_ls_wR_factor_gt 0.0744
_symmetry_cell_setting monoclinic
_symmetry_space_group_name_H-M 'P 21/c'
_symmetry_Int_Tables_number 14
loop_
_symmetry_equiv_pos_site_id
_symmetry_equiv_pos_as_xyz
1 x,y,z
2 -x,1/2+y,1/2-z
3 -x,-y,-z
4 x,-1/2-y,-1/2+z
_cell_length_a 9.8653(4)
_cell_length_b 34.3089(13)
_cell_length_c 9.4512(3)
_cell_angle_alpha 90
_cell_angle_beta 103.128(2)
_cell_angle_gamma 90
_cell_formula_units_Z 4
loop_
_atom_type_symbol
_atom_type_radius_bond
C 0.68
H 0.23
Er 1.89
N 0.68
O 0.68
loop_
_atom_site_label
_atom_site_type_symbol
_atom_site_fract_x
_atom_site_fract_y
_atom_site_fract_z
Er1 Er 0.04613(5) -0.127882(14) 0.60171(5)
O1 O 0.1235(7) -0.0738(2) 0.5036(8)
O2 O -0.1476(7) -0.0976(2) 0.4605(7)
O3 O -0.0845(8) -0.1085(2) 0.7606(8)
O4 O 0.1968(8) -0.0994(2) 0.7926(8)
O5 O 0.1436(8) -0.1800(2) 0.7418(7)
O6 O -0.1150(7) -0.1773(2) 0.5556(8)
O7 O 0.6105(10) -0.1836(3) 0.2015(12)
O8 O 0.5371(10) -0.1443(4) 0.0304(12)
N1 N 0.2867(9) -0.1429(3) 0.5381(10)
N2 N 0.0432(9) -0.1502(2) 0.3457(9)
N3 N 0.5236(10) -0.1602(4) 0.1340(13)
C1 C -0.2081(17) -0.0680(4) 0.8922(18)
H1 H -0.18620 -0.04940 0.97020
H2 H -0.25140 -0.09040 0.92360
H3 H -0.27070 -0.05630 0.81050
C2 C -0.0725(15) -0.0805(4) 0.8477(13)
C3 C 0.0499(16) -0.0612(4) 0.9005(15)
H4 H 0.04710 -0.03940 0.95810
C4 C 0.1784(15) -0.0718(4) 0.8745(13)
C5 C 0.3093(19) -0.0501(5) 0.9510(19)
H5 H 0.28270 -0.02430 0.97600
H6 H 0.34900 -0.06360 1.04120
C6 C 0.412(2) -0.0463(6) 0.873(3)
H7 H 0.43620 -0.07160 0.84340
H8 H 0.49240 -0.03430 0.93330
H9 H 0.37760 -0.03050 0.78900
C7 C -0.3216(12) -0.0613(4) 0.3015(17)
H10 H -0.35400 -0.08080 0.22920
H11 H -0.32830 -0.03610 0.25620
H12 H -0.37770 -0.06170 0.37230
C8 C -0.1694(12) -0.0695(4) 0.3766(12)
C9 C -0.0681(13) -0.0457(4) 0.3436(13)
H13 H -0.09580 -0.02670 0.27300
C10 C 0.0723(13) -0.0485(3) 0.4091(14)
C11 C 0.1746(15) -0.0204(4) 0.3654(17)
H14 H 0.14060 -0.01400 0.26360
H15 H 0.17520 0.00350 0.42050
C12 C 0.3131(18) -0.0338(6) 0.386(2)
H16 H 0.34770 -0.04090 0.48560
H17 H 0.37010 -0.01340 0.36050
H18 H 0.31570 -0.05600 0.32480
C13 C -0.2460(15) -0.2359(4) 0.515(2)
H19 H -0.30330 -0.23980 0.58330
H20 H -0.21850 -0.26070 0.48350
H21 H -0.29750 -0.22170 0.43260
C14 C -0.1164(12) -0.2127(4) 0.5873(15)
C15 C -0.0104(14) -0.2319(4) 0.6821(15)
H22 H -0.02400 -0.25810 0.69990
C16 C 0.1128(12) -0.2155(4) 0.7518(13)
C17 C 0.2180(19) -0.2408(4) 0.8531(19)
H23 H 0.22160 -0.23310 0.95250
H24 H 0.18660 -0.26770 0.84240
C18 C 0.357(2) -0.2387(6) 0.827(3)
H25 H 0.35630 -0.24840 0.73170
H26 H 0.41930 -0.25430 0.89820
H27 H 0.38830 -0.21210 0.83480
C19 C -0.0792(10) -0.1539(3) 0.2505(10)
H28 H -0.15950 -0.15340 0.28640
C20 C -0.0942(10) -0.1584(3) 0.1042(11)
H29 H -0.18160 -0.16160 0.04300
C21 C 0.0244(11) -0.1579(3) 0.0503(12)
H30 H 0.01730 -0.16030 -0.04920
C22 C 0.1532(10) -0.1541(3) 0.1427(10)
C23 C 0.2800(11) -0.1550(3) 0.0990(13)
H31 H 0.27970 -0.15620 0.00060
C24 C 0.4028(9) -0.1542(3) 0.1988(11)
C25 C 0.4166(10) -0.1503(3) 0.3499(12)
C26 C 0.5344(11) -0.1470(3) 0.4567(14)
H32 H 0.61930 -0.14820 0.42970
C27 C 0.5370(14) -0.1421(4) 0.5992(16)
H33 H 0.61960 -0.14000 0.66950
C28 C 0.4019(13) -0.1403(4) 0.6343(14)
H34 H 0.39810 -0.13720 0.73100
C29 C 0.2866(10) -0.1475(3) 0.3948(11)
C30 C 0.1556(10) -0.1501(3) 0.2922(11)
#END

data_CSD_CIF_QIVZOM
_audit_creation_date 2014-03-19
_audit_creation_method CSD-ConQuest-V1
_database_code_CSD QIVZOM
_database_code_depnum_ccdc_archive 'CCDC 973456'
_chemical_formula_sum 'C28 H35 Er1 N2 O6'
_chemical_formula_moiety
;
C28 H35 Er1 N2 O6
;
_journal_coden_Cambridge 222
_journal_volume 43
_journal_year 2014
_journal_page_first 6752
_journal_name_full 'Dalton Trans. '
loop_
_publ_author_name
"M.Ramos Silva"
"P.Martin-Ramos"
"J.T.Coutinho"
"L.C.J.Pereira"
"J.Martin-Gil"
_chemical_name_systematic
;
tris(2,4-hexanedionate)-(2,2-bipyridine)-erbium(iii)
;
_cell_volume   2851.510
_exptl_crystal_colour 'colorless'
_exptl_crystal_density_diffrn 1.544
_exptl_crystal_description 'needle'
_diffrn_ambient_temperature 293
#These two values have been output from a single CSD field.
_refine_ls_R_factor_gt 0.0268
_refine_ls_wR_factor_gt 0.0268
_symmetry_cell_setting monoclinic
_symmetry_space_group_name_H-M 'P 21/n'
_symmetry_Int_Tables_number 14
loop_
_symmetry_equiv_pos_site_id
_symmetry_equiv_pos_as_xyz
1 x,y,z
2 1/2-x,1/2+y,1/2-z
3 -x,-y,-z
4 -1/2+x,-1/2-y,-1/2+z
_cell_length_a 9.4068(2)
_cell_length_b 23.0764(4)
_cell_length_c 13.1493(3)
_cell_angle_alpha 90
_cell_angle_beta 92.5718(12)
_cell_angle_gamma 90
_cell_formula_units_Z 4
loop_
_atom_type_symbol
_atom_type_radius_bond
C 0.68
H 0.23
Er 1.89
N 0.68
O 0.68
loop_
_atom_site_label
_atom_site_type_symbol
_atom_site_fract_x
_atom_site_fract_y
_atom_site_fract_z
Er1 Er 0.871584(11) 0.150497(5) 0.664271(9)
N1 N 1.1218(2) 0.15118(8) 0.59941(16)
N2 N 0.9076(2) 0.20254(9) 0.49392(16)
O1 O 0.96233(18) 0.23983(7) 0.70953(15)
O2 O 0.68327(17) 0.21440(7) 0.65420(15)
O3 O 0.7170(2) 0.11525(8) 0.77825(16)
O4 O 1.0059(2) 0.13717(8) 0.81315(15)
O5 O 0.94219(18) 0.05442(7) 0.66427(14)
O6 O 0.73024(17) 0.10544(7) 0.54264(14)
C1 C 1.2262(3) 0.12118(12) 0.6477(2)
H1 H 1.20310 0.09760 0.70180
C2 C 1.3656(3) 0.12346(12) 0.6214(2)
H2 H 1.43550 0.10290 0.65850
C3 C 1.3998(3) 0.15624(13) 0.5403(3)
H3 H 1.49310 0.15790 0.51990
C4 C 1.2943(3) 0.18687(13) 0.4889(2)
H4 H 1.31580 0.20950 0.43310
C5 C 1.1558(3) 0.18416(11) 0.5202(2)
C6 C 1.0393(3) 0.21679(11) 0.4675(2)
C7 C 1.0631(3) 0.25866(13) 0.3954(2)
H5 H 1.15540 0.26890 0.38040
C8 C 0.9486(3) 0.28522(13) 0.3459(2)
H6 H 0.96270 0.31410 0.29800
C9 C 0.8142(3) 0.26870(12) 0.3678(2)
H7 H 0.73520 0.28460 0.33310
C10 C 0.7988(3) 0.22775(12) 0.4430(2)
H8 H 0.70710 0.21720 0.45910
C11 C 0.5217(3) 0.29216(13) 0.6286(3)
H9 H 0.50630 0.29230 0.55590
H10 H 0.51400 0.33100 0.65400
H11 H 0.45150 0.26810 0.65850
C12 C 0.6696(3) 0.26856(12) 0.6562(2)
C13 C 0.7773(3) 0.30741(12) 0.6806(2)
H12 H 0.75500 0.34670 0.68060
C14 C 0.9173(3) 0.29137(11) 0.7052(2)
C15 C 1.0269(4) 0.33771(13) 0.7274(3)
H13 H 0.97980 0.37500 0.73090
H14 H 1.07420 0.33020 0.79310
C16 C 1.1328(5) 0.34000(18) 0.6497(4)
H15 H 1.17830 0.30290 0.64500
H16 H 1.20280 0.36890 0.66780
H17 H 1.08700 0.34960 0.58520
C17 C 0.5695(5) 0.0059(2) 0.8345(3)
H18 H 0.58010 0.01550 0.76420
H19 H 0.47300 -0.00550 0.84430
H20 H 0.63240 -0.02540 0.85340
C18 C 0.6043(4) 0.05633(16) 0.8976(3)
H21 H 0.62160 0.04430 0.96770
H22 H 0.52490 0.08320 0.89500
C19 C 0.7358(3) 0.08605(13) 0.8597(3)
C20 C 0.8642(4) 0.08011(13) 0.9143(2)
H23 H 0.86450 0.05810 0.97360
C21 C 0.9916(3) 0.10400(13) 0.8881(2)
C22 C 1.1283(4) 0.08972(15) 0.9508(3)
H24 H 1.18700 0.06470 0.91220
H25 H 1.10450 0.07060 1.01270
H26 H 1.17900 0.12490 0.96690
C23 C 0.6114(3) 0.04599(13) 0.4210(2)
H27 H 0.52050 0.06170 0.43680
H28 H 0.60140 0.00540 0.40600
H29 H 0.64630 0.06570 0.36290
C24 C 0.7142(3) 0.05393(12) 0.5104(2)
C25 C 0.7862(3) 0.00632(12) 0.5507(2)
H30 H 0.75910 -0.03000 0.52630
C26 C 0.8954(3) 0.00878(12) 0.6247(2)
C27 C 0.9635(4) -0.04791(13) 0.6590(3)
H31 H 0.88850 -0.07590 0.66920
H32 H 1.02000 -0.06240 0.60450
C28 C 1.0522(5) -0.04507(17) 0.7501(4)
H33 H 1.12800 -0.01800 0.74090
H34 H 1.09140 -0.08270 0.76500
H35 H 0.99670 -0.03260 0.80560
#END

data_CSD_CIF_QIVZUS
_audit_creation_date 2014-03-19
_audit_creation_method CSD-ConQuest-V1
_database_code_CSD QIVZUS
_database_code_depnum_ccdc_archive 'CCDC 973457'
_chemical_formula_sum 'C42 H43 Er1 N2 O6'
_chemical_formula_moiety
;
C42 H43 Er1 N2 O6
;
_journal_coden_Cambridge 222
_journal_volume 43
_journal_year 2014
_journal_page_first 6752
_journal_name_full 'Dalton Trans. '
loop_
_publ_author_name
"M.Ramos Silva"
"P.Martin-Ramos"
"J.T.Coutinho"
"L.C.J.Pereira"
"J.Martin-Gil"
_chemical_name_systematic
;
tris(2,4-hexanedionato)-(4,7-diphenyl-1,10-phenanthroline)-erbium(iii)
;
_cell_volume   1910.646
_exptl_crystal_colour 'pink'
_exptl_crystal_density_diffrn 1.458
_exptl_crystal_description 'prism'
_diffrn_ambient_temperature 293
_refine_special_details
;
C35B,C36B,C41B,C42B and C35A,C36A,C41A,C42A disordered over two sites with 
occupancies 0.615:0.385.
;
#These two values have been output from a single CSD field.
_refine_ls_R_factor_gt 0.0946
_refine_ls_wR_factor_gt 0.0946
_symmetry_cell_setting triclinic
_symmetry_space_group_name_H-M 'P -1'
_symmetry_Int_Tables_number 2
loop_
_symmetry_equiv_pos_site_id
_symmetry_equiv_pos_as_xyz
1 x,y,z
2 -x,-y,-z
_cell_length_a 11.9780(7)
_cell_length_b 12.4180(7)
_cell_length_c 13.9870(8)
_cell_angle_alpha 102.863(3)
_cell_angle_beta 94.026(3)
_cell_angle_gamma 107.715(3)
_cell_formula_units_Z 2
loop_
_atom_type_symbol
_atom_type_radius_bond
C 0.68
H 0.23
Er 1.89
N 0.68
O 0.68
loop_
_atom_site_label
_atom_site_type_symbol
_atom_site_fract_x
_atom_site_fract_y
_atom_site_fract_z
Er1 Er 0.463987(14) 0.749918(13) 0.290163(12)
N1 N 0.6320(3) 0.6659(3) 0.2763(2)
N2 N 0.6387(3) 0.8416(3) 0.4326(2)
O1 O 0.4392(3) 0.6088(2) 0.3748(2)
O2 O 0.3608(3) 0.7935(2) 0.4155(2)
O3 O 0.30462(15) 0.77004(17) 0.20453(11)
O4 O 0.36919(11) 0.57402(14) 0.17489(9)
O5 O 0.5499(2) 0.78644(12) 0.15455(13)
O6 O 0.5169(3) 0.94978(14) 0.31150(11)
C1 C 0.6400(3) 0.9265(3) 0.5079(3)
H1 H 0.57950 0.95890 0.50660
C2 C 0.7279(4) 0.9697(3) 0.5894(3)
H2 H 0.72600 1.03190 0.63980
C3 C 0.8179(4) 0.9240(3) 0.5983(3)
C4 C 0.8205(3) 0.8331(3) 0.5149(3)
C5 C 0.7287(3) 0.7942(3) 0.4342(3)
C6 C 0.7251(3) 0.6989(3) 0.3535(2)
C7 C 0.8114(3) 0.6492(3) 0.3538(3)
C8 C 0.9041(3) 0.6870(4) 0.4390(3)
H3 H 0.96040 0.64970 0.44110
C9 C 0.9069(4) 0.7766(3) 0.5144(3)
H4 H 0.96740 0.80240 0.56790
C10 C 0.6165(5) 0.5759(4) 0.2014(3)
H5 H 0.54930 0.54700 0.15360
C11 C 0.7123(4) 0.5220(4) 0.1965(3)
H6 H 0.70810 0.46410 0.13990
C12 C 0.8040(3) 0.5523(3) 0.2689(3)
C13 C 0.8874(4) 0.4877(4) 0.2646(3)
C14 C 1.0114(4) 0.5404(5) 0.2727(4)
H7 H 1.04380 0.62130 0.28480
C15 C 1.0822(4) 0.4757(5) 0.2633(4)
H8 H 1.16220 0.51290 0.26310
C16 C 1.0467(4) 0.3642(5) 0.2544(4)
H9 H 1.10040 0.32360 0.25200
C17 C 0.9271(5) 0.3071(5) 0.2485(5)
H10 H 0.90030 0.22700 0.24250
C18 C 0.8461(4) 0.3669(4) 0.2515(4)
H11 H 0.76540 0.32690 0.24470
C19 C 0.9115(4) 0.9664(3) 0.6869(3)
C20 C 0.8830(4) 0.9327(4) 0.7700(3)
H12 H 0.80590 0.88840 0.77320
C21 C 0.9720(6) 0.9661(6) 0.8507(4)
H13 H 0.95340 0.94160 0.90750
C22 C 1.0793(6) 1.0296(6) 0.8499(5)
H14 H 1.13350 1.05010 0.90730
C23 C 1.1194(7) 1.0695(7) 0.7694(5)
H15 H 1.19730 1.11440 0.76960
C24 C 1.0248(5) 1.0329(6) 0.6832(4)
H16 H 1.04270 1.05560 0.62560
C25 C 0.2247(2) 0.7976(3) 0.5265(3)
H17 H 0.23340 0.87170 0.51240
H18 H 0.24830 0.80930 0.59610
H19 H 0.14340 0.74830 0.50800
C26 C 0.3013(2) 0.7405(3) 0.4686(3)
C27 C 0.2976(4) 0.6302(4) 0.4769(3)
H20 H 0.24510 0.59550 0.51590
C28 C 0.3675(3) 0.5668(2) 0.4306(3)
C29 C 0.3505(3) 0.44557(19) 0.4392(2)
H21 H 0.26810 0.40920 0.44480
H22 H 0.39790 0.45000 0.50000
C30 C 0.3825(4) 0.3686(3) 0.3550(3)
H23 H 0.36580 0.29180 0.36540
H24 H 0.46530 0.40070 0.35140
H25 H 0.33680 0.36400 0.29410
C31 C 0.5172(5) 1.1322(4) 0.2828(4)
H26 H 0.49430 1.13990 0.34780
H27 H 0.45700 1.13940 0.23800
H28 H 0.59080 1.19250 0.28550
C32 C 0.5323(4) 1.01009(17) 0.24592(13)
C33 C 0.5540(3) 0.9748(3) 0.1509(3)
H29 H 0.56010 1.02660 0.11120
C34 C 0.5672(4) 0.87046(14) 0.11050(14)
C35 C 0.1502(3) 0.7719(3) 0.0829(4)
H30 H 0.17090 0.85140 0.12150
H31 H 0.06850 0.73100 0.08450
H32 H 0.16210 0.77090 0.01560
C36 C 0.22729(17) 0.7128(2) 0.12570(12)
C37 C 0.21884(10) 0.59877(18) 0.07505(8)
H33 H 0.16150 0.56250 0.01920
C38 C 0.28834(9) 0.53552(13) 0.10097(7)
C39 C 0.5937(5) 0.8455(5) 0.0068(3)
H34 H 0.67000 0.83330 0.00660
H35 H 0.59790 0.91180 -0.02020
C40 C 0.4995(5) 0.7390(5) -0.0561(4)
H36 H 0.52000 0.72080 -0.12150
H37 H 0.42520 0.75340 -0.05980
H38 H 0.49290 0.67430 -0.02730
C41 C 0.2692(7) 0.4108(2) 0.0474(3)
H39 H 0.20170 0.38670 -0.00440
H40 H 0.33780 0.40980 0.01470
C42 C 0.2486(12) 0.3193(3) 0.1042(3)
H41 H 0.23350 0.24400 0.05920
H42 H 0.18150 0.31860 0.13810
H43 H 0.31750 0.33650 0.15170
C43? C 0.5936(6) 0.8286(5) 0.0079(4)
H44? H 0.67800 0.84870 0.00570
H45? H 0.55520 0.74510 -0.01910
C44? C 0.5389(4) 0.8985(4) -0.0429(4)
H46? H 0.55150 0.88480 -0.11100
H47? H 0.57490 0.98010 -0.01050
H48? H 0.45540 0.87520 -0.03980
C45? C 0.2361(4) 0.4113(3) 0.0395(3)
H49? H 0.20050 0.36400 0.08290
H50? H 0.30120 0.38590 0.01760
C46? C 0.1455(5) 0.3825(12) -0.0503(3)
H51? H 0.13330 0.30450 -0.08890
H52? H 0.17300 0.43680 -0.08960
H53? H 0.07210 0.38770 -0.02960
#END

data_CSD_CIF_QQQDTG
_audit_creation_date 1981-03-13
_audit_creation_method CSD-ConQuest-V1
_database_code_CSD QQQDTG
_chemical_formula_sum 'C28 H30 Cl3 Eu1 N2 O6'
_chemical_formula_moiety
;
C27 H29 Eu1 N2 O6,C1 H1 Cl3
;
_journal_coden_Cambridge 51
_journal_volume 8
_journal_year 1968
_journal_page_first 117
_journal_name_full 'Z.Chem. '
loop_
_publ_author_name
"W.Schmidt"
"E.Butter"
_chemical_name_systematic
;
tris(Acetylacetonato) europium(iii) -phenanthroline chloroform solvate
;
_cell_volume   6318.554
_exptl_crystal_density_diffrn 1.58
_exptl_special_details
;
No information on connectivity available

;
_diffrn_ambient_temperature ?
_diffrn_special_details
;
The study was carried out at room temperature,in the range 283-303K

;
_symmetry_cell_setting monoclinic
_symmetry_space_group_name_H-M 'P 21/a'
_symmetry_Int_Tables_number 14
_cell_length_a 19.7(1)
_cell_length_b 16.8(1)
_cell_length_c 19.1(1)
_cell_angle_alpha 90
_cell_angle_beta 91.7(5)
_cell_angle_gamma 90
_cell_formula_units_Z 8
#END

data_CSD_CIF_QUXQAD
_audit_creation_date 2015-11-04
_audit_creation_method CSD-ConQuest-V1
_database_code_CSD QUXQAD
_database_code_depnum_ccdc_archive 'CCDC 1037818'
_chemical_formula_sum 'C25 H20 Dy1 F9 N2 O6'
_chemical_formula_moiety
;
C25 H20 Dy1 F9 N2 O6
;
_journal_coden_Cambridge 1500
_journal_volume 5
_journal_year 2015
_journal_page_first 94802
_journal_name_full 'RSC Advances '
loop_
_publ_author_name
"Wenyi Chu"
"Qingyan Sun"
"Xu Yao"
"Pengfei Yan"
"Guanghui An"
"Guangming Li"
_chemical_name_systematic
;
tris(5,5,5-trifluoro-4-oxopent-2-en-2-olate)-(2,2'-bipyridine)-dysprosium
;
_cell_volume   2901.514
_exptl_crystal_colour 'colorless'
_exptl_crystal_density_diffrn 1.781
_exptl_crystal_description 'block'
_diffrn_ambient_temperature 293
_refine_special_details
;
Dy1A,Dy2A and Dy1B,Dy2B disordered over two sites with occupancies 0.90:0.10; 
F10A,F11A,F12A and F10B,F11B,F12B disordered over two sites with occupancies 
0.50:0.50; F13A,F14A,F15A and F13B,F14B,F15B disordered over two sites with 
occupancies 0.50:0.50; F16A,F17A,F18A and F16B,F17B,F18B disordered over two 
sites with occupancies 0.50:0.50; F1A,F2B,F3A and F1B,F2A,F3B disordered over 
two sites with occupancies 0.50:0.50; F7A,F9A and F7B,F9B disordered over two 
sites with occupancies 0.50:0.50.
;
#These two values have been output from a single CSD field.
_refine_ls_R_factor_gt 0.0832
_refine_ls_wR_factor_gt 0.0832
_symmetry_cell_setting triclinic
_symmetry_space_group_name_H-M 'P -1'
_symmetry_Int_Tables_number 2
loop_
_symmetry_equiv_pos_site_id
_symmetry_equiv_pos_as_xyz
1 x,y,z
2 -x,-y,-z
_cell_length_a 12.286(5)
_cell_length_b 15.177(5)
_cell_length_c 17.897(5)
_cell_angle_alpha 93.487(5)
_cell_angle_beta 107.140(5)
_cell_angle_gamma 111.979(5)
_cell_formula_units_Z 4
loop_
_atom_type_symbol
_atom_type_radius_bond
C 0.68
H 0.23
Dy 1.92
F 0.64
N 0.68
O 0.68
loop_
_atom_site_label
_atom_site_type_symbol
_atom_site_fract_x
_atom_site_fract_y
_atom_site_fract_z
C1 C -0.6546(14) 0.2700(15) 0.3448(12)
H1 H -0.65690 0.23440 0.29780
H2 H -0.65130 0.33250 0.33570
H3 H -0.72840 0.23530 0.35710
C2 C -0.5419(12) 0.2822(10) 0.4128(9)
C3 C -0.5216(14) 0.3321(12) 0.4878(11)
H4 H -0.57490 0.36080 0.49220
C4 C -0.4242(13) 0.3402(10) 0.5557(10)
C5 C -0.4173(18) 0.3904(14) 0.6325(13)
C6 C -0.2877(17) 0.2050(13) 0.2001(9)
H5 H -0.34130 0.23860 0.18890
H6 H -0.33400 0.13860 0.17310
H7 H -0.21880 0.23500 0.18190
C7 C -0.2363(12) 0.2095(9) 0.2932(7)
C8 C -0.1548(17) 0.1642(11) 0.3211(9)
H8 H -0.13620 0.13120 0.28460
C9 C -0.1008(13) 0.1680(9) 0.4032(9)
C10 C -0.019(2) 0.1167(15) 0.4235(11)
C11 C -0.2068(16) 0.5881(11) 0.4593(11)
H9 H -0.27060 0.56370 0.40760
H10 H -0.13180 0.63530 0.45510
H11 H -0.23450 0.61770 0.49460
C12 C -0.1802(12) 0.5034(9) 0.4927(9)
C13 C -0.0909(12) 0.5233(9) 0.5679(8)
H12 H -0.05450 0.58560 0.59810
C14 C -0.0541(12) 0.4531(14) 0.5994(7)
C15 C -0.1720(13) 0.1943(11) 0.6445(7)
H13 H -0.14340 0.26030 0.66320
C16 C -0.1390(13) 0.1341(13) 0.6944(8)
H14 H -0.08920 0.16000 0.74750
C17 C -0.1785(19) 0.0390(14) 0.6663(10)
H15 H -0.15210 0.00150 0.70040
C18 C -0.2539(15) -0.0037(12) 0.5915(9)
H16 H -0.28160 -0.06970 0.57330
C19 C -0.2902(11) 0.0578(8) 0.5404(7)
C20 C -0.3745(10) 0.0190(8) 0.4583(7)
C21 C -0.4365(15) -0.0798(9) 0.4268(9)
H17 H -0.42450 -0.12420 0.45840
C22 C -0.5160(16) -0.1118(10) 0.3484(10)
H18 H -0.55600 -0.17730 0.32530
C23 C -0.5336(13) -0.0420(9) 0.3056(8)
H19 H -0.58620 -0.06050 0.25270
C24 C -0.4765(11) 0.0494(9) 0.3394(8)
H20 H -0.49320 0.09360 0.30930
C25 C 0.0365(14) 0.4856(9) 0.6848(8)
N1 N -0.3973(8) 0.0838(7) 0.4127(5)
N2 N -0.2490(9) 0.1521(7) 0.5661(5)
O1 O -0.2358(7) 0.4225(5) 0.4468(5)
O2 O -0.0875(7) 0.3679(5) 0.5696(5)
O3 O -0.1169(7) 0.2098(6) 0.4562(5)
O4 O -0.2743(8) 0.2510(6) 0.3346(4)
O5 O -0.4724(7) 0.2468(6) 0.3984(5)
O6 O -0.3433(7) 0.3075(6) 0.5606(5)
F1 F -0.343(3) 0.374(2) 0.6956(17)
F2 F -0.524(3) 0.365(2) 0.6442(19)
F3 F -0.371(3) 0.487(2) 0.6369(17)
F4 F -0.0246(16) 0.4473(13) 0.7335(10)
F5 F 0.0786(15) 0.5756(12) 0.7164(9)
F6 F 0.120(2) 0.4433(18) 0.6953(14)
F7 F 0.079(3) 0.165(2) 0.4800(19)
F8 F 0.001(3) 0.074(2) 0.3657(18)
F9 F -0.072(3) 0.044(2) 0.4562(19)
Dy1 Dy -0.26628(4) 0.26413(3) 0.46669(3)
F10? F -0.292(4) 0.457(3) 0.673(3)
F11? F -0.472(3) 0.449(2) 0.6267(17)
F12? F -0.446(5) 0.340(3) 0.681(3)
F13? F 0.020(3) 0.419(2) 0.7273(18)
F14? F 0.151(3) 0.500(2) 0.6848(18)
F15? F 0.014(4) 0.116(3) 0.500(2)
F16? F -0.064(3) 0.033(3) 0.376(2)
F17? F 0.082(4) 0.161(3) 0.404(3)
Dy2? Dy -0.2080(7) 0.2581(6) 0.5332(3)
C26 C -0.0132(17) -0.0868(11) 0.8303(9)
H21 H -0.05090 -0.06190 0.78660
H22 H -0.07730 -0.13550 0.84360
H23 H 0.03770 -0.11460 0.81530
C27 C 0.0679(13) -0.0048(9) 0.9022(8)
C28 C 0.1308(12) -0.0248(9) 0.9716(8)
H24 H 0.12890 -0.08660 0.97160
C29 C 0.1982(11) 0.0448(9) 1.0428(7)
C30 C -0.1630(19) 0.2955(17) 0.8543(15)
H25 H -0.13090 0.32720 0.81580
H26 H -0.20520 0.32900 0.87310
H27 H -0.22070 0.22980 0.83000
C31 C -0.0457(13) 0.2961(10) 0.9304(11)
C32 C -0.0221(17) 0.3386(12) 1.0083(12)
H28 H -0.06730 0.37250 1.01810
C33 C 0.0708(13) 0.3295(10) 1.0718(10)
C34 C 0.200(2) 0.2276(18) 0.7045(10)
H29 H 0.14800 0.26220 0.69780
H30 H 0.15480 0.16500 0.67010
H31 H 0.27280 0.26320 0.69120
C35 C 0.2421(14) 0.2149(10) 0.7932(8)
C36 C 0.3197(17) 0.1660(13) 0.8139(9)
H32 H 0.33720 0.13680 0.77440
C37 C 0.3702(14) 0.1606(10) 0.8916(12)
C38 C 0.4576(18) 0.1101(15) 0.9116(19)
C39 C 0.4504(11) 0.3077(11) 1.1411(7)
H33 H 0.43070 0.24170 1.13150
C40 C 0.5383(14) 0.3685(13) 1.2155(8)
H34 H 0.57520 0.34210 1.25580
C41 C 0.5660(15) 0.4603(12) 1.2262(10)
H35 H 0.62680 0.49890 1.27380
C42 C 0.5140(11) 0.5027(11) 1.1741(8)
H36 H 0.53220 0.56830 1.18580
C43 C 0.4264(9) 0.4427(8) 1.0974(6)
C44 C 0.3657(10) 0.4814(8) 1.0326(7)
C45 C 0.4027(14) 0.5804(9) 1.0348(9)
H37 H 0.46690 0.62480 1.07870
C46 C 0.3421(15) 0.612(1) 0.9701(10)
H38 H 0.36450 0.67770 0.97010
C47 C 0.2492(13) 0.5438(9) 0.9071(8)
H39 H 0.20470 0.56280 0.86430
C48 C 0.2219(12) 0.4496(9) 0.9066(7)
H40 H 0.16200 0.40520 0.86130
C49 C 0.2684(13) 0.0128(9) 1.1138(11)
C50 C 0.096(3) 0.3834(19) 1.1496(15)
N3 N 0.3958(8) 0.3498(6) 1.0840(5)
N4 N 0.2745(8) 0.4163(7) 0.9663(5)
O7 O 0.0097(7) 0.2514(6) 0.9065(5)
O8 O 0.1362(8) 0.2872(6) 1.0669(5)
O9 O 0.2036(8) 0.2507(6) 0.8389(5)
O10 O 0.3544(8) 0.1943(6) 0.9530(5)
O11 O 0.0712(8) 0.0787(6) 0.8946(5)
O12 O 0.2136(8) 0.1313(5) 1.0563(4)
F18 F 0.561(4) 0.161(3) 0.951(3)
F19 F 0.450(2) 0.059(2) 0.8437(15)
F20 F 0.421(3) 0.042(2) 0.951(2)
F21 F 0.2629(18) -0.0809(13) 1.0942(11)
F22 F 0.381(3) 0.080(2) 1.1548(19)
F23 F 0.213(3) 0.005(2) 1.1706(18)
F24 F 0.022(3) 0.427(2) 1.138(2)
F25 F 0.072(3) 0.322(2) 1.1936(19)
F26 F 0.208(3) 0.444(3) 1.188(3)
Dy3 Dy 0.19791(5) 0.23573(3) 0.96821(3)
F27? F 0.547(4) 0.156(3) 0.879(3)
F28? F 0.521(4) 0.130(3) 0.988(2)
F29? F 0.400(3) 0.019(3) 0.874(2)
F30? F 0.221(2) -0.0720(18) 1.1225(15)
F31? F 0.3924(17) 0.0505(14) 1.1189(11)
F32? F 0.276(2) 0.0619(19) 1.1844(15)
Dy4? Dy 0.2694(8) 0.2397(7) 1.0316(3)
#END

data_CSD_CIF_QUXQEH
_audit_creation_date 2015-11-04
_audit_creation_method CSD-ConQuest-V1
_database_code_CSD QUXQEH
_database_code_depnum_ccdc_archive 'CCDC 1037819'
_chemical_formula_sum 'C27 H20 Dy1 F9 N2 O6'
_chemical_formula_moiety
;
C27 H20 Dy1 F9 N2 O6
;
_journal_coden_Cambridge 1500
_journal_volume 5
_journal_year 2015
_journal_page_first 94802
_journal_name_full 'RSC Advances '
loop_
_publ_author_name
"Wenyi Chu"
"Qingyan Sun"
"Xu Yao"
"Pengfei Yan"
"Guanghui An"
"Guangming Li"
_chemical_name_systematic
;
tris(5,5,5-trifluoro-4-oxopent-2-en-2-olate)-(1,10-phenanthroline)-dysprosium
;
_cell_volume   5912.994
_exptl_crystal_colour 'colorless'
_exptl_crystal_density_diffrn 1.802
_exptl_crystal_description 'block'
_diffrn_ambient_temperature 293
_refine_special_details
;
Dy1A,Dy2A and Dy1B,Dy2B disordered over two sites with occupancies 0.90:0.10; 
F1A,F3B and F1B,F3A disordered over two sites with occupancies 0.50:0.50.
;
#These two values have been output from a single CSD field.
_refine_ls_R_factor_gt 0.0498
_refine_ls_wR_factor_gt 0.0498
_symmetry_cell_setting monoclinic
_symmetry_space_group_name_H-M 'P 21/c'
_symmetry_Int_Tables_number 14
loop_
_symmetry_equiv_pos_site_id
_symmetry_equiv_pos_as_xyz
1 x,y,z
2 -x,1/2+y,1/2-z
3 -x,-y,-z
4 x,-1/2-y,-1/2+z
_cell_length_a 16.001(5)
_cell_length_b 18.400(5)
_cell_length_c 22.106(4)
_cell_angle_alpha 90
_cell_angle_beta 114.699(15)
_cell_angle_gamma 90
_cell_formula_units_Z 8
loop_
_atom_type_symbol
_atom_type_radius_bond
C 0.68
H 0.23
Dy 1.92
F 0.64
N 0.68
O 0.68
loop_
_atom_site_label
_atom_site_type_symbol
_atom_site_fract_x
_atom_site_fract_y
_atom_site_fract_z
C1 C 1.0475(7) 0.5141(5) 0.2409(5)
H1 H 0.98510 0.52040 0.21430
C2 C 1.1038(9) 0.5742(5) 0.2607(6)
H2 H 1.07930 0.62000 0.24610
C3 C 1.1946(8) 0.5673(6) 0.3015(6)
H3 H 1.23220 0.60800 0.31630
C4 C 1.2293(7) 0.4991(6) 0.3200(5)
C5 C 1.3247(7) 0.4874(6) 0.3615(5)
H4 H 1.36420 0.52690 0.37720
C6 C 1.3585(7) 0.4175(6) 0.3783(6)
H5 H 1.42050 0.41090 0.40560
C7 C 1.3328(7) 0.2846(6) 0.3695(5)
H6 H 1.39480 0.27560 0.39540
C8 C 1.2724(7) 0.2292(6) 0.3453(5)
H7 H 1.29280 0.18130 0.35380
C9 C 1.3003(6) 0.3554(6) 0.3547(4)
C10 C 1.1714(6) 0.4380(5) 0.2983(4)
C11 C 1.2066(6) 0.3659(5) 0.3163(4)
C12 C 1.1804(6) 0.2440(5) 0.3080(5)
H8 H 1.13980 0.20520 0.29210
C13 C 1.1155(14) 0.4085(9) 0.4657(7)
C14 C 1.0687(8) 0.3537(6) 0.4108(5)
C15 C 1.0333(7) 0.2288(6) 0.3812(5)
C16 C 1.038(1) 0.1493(6) 0.4063(6)
H9 H 1.00610 0.11780 0.36910
H10 H 1.00980 0.14660 0.43690
H11 H 1.10120 0.13440 0.42830
C17 C 0.9042(6) 0.3466(7) 0.0861(5)
C18 C 0.9042(7) 0.2746(7) 0.0731(5)
H12 H 0.87390 0.25870 0.02930
C19 C 0.9481(7) 0.2233(6) 0.1231(6)
C20 C 0.9537(10) 0.1452(7) 0.1026(7)
H13 H 0.98560 0.11620 0.14150
H14 H 0.98640 0.14380 0.07470
H15 H 0.89270 0.12640 0.07840
C21 C 0.7692(8) 0.5201(7) 0.1791(7)
C22 C 0.7950(7) 0.4432(6) 0.1924(5)
C23 C 0.7295(7) 0.3917(6) 0.1569(5)
H16 H 0.67140 0.40760 0.12760
C24 C 0.7466(6) 0.3177(6) 0.1630(4)
C25 C 0.8593(10) 0.3982(11) 0.0277(8)
C26 C 0.6702(7) 0.2673(7) 0.1259(6)
H17 H 0.69180 0.21810 0.13480
H18 H 0.64780 0.27680 0.07900
H19 H 0.62130 0.27440 0.13980
C27 C 1.0754(8) 0.2827(6) 0.4278(5)
H20 H 1.10910 0.26970 0.47210
Dy1 Dy 0.97380(4) 0.33701(3) 0.24763(4)
F1 F 0.7901(13) 0.4226(13) 0.0249(11)
F2 F 0.9200(7) 0.4352(7) 0.0192(6)
F3 F 0.8546(19) 0.3689(15) -0.0296(13)
F4 F 0.8098(7) 0.5534(5) 0.1459(6)
F5 F 0.7947(11) 0.5614(5) 0.2304(6)
F6 F 0.6818(6) 0.5345(6) 0.1440(8)
F7 F 1.1788(13) 0.4402(11) 0.4569(8)
F8 F 1.0675(10) 0.4495(10) 0.4741(7)
F9 F 1.1676(11) 0.3806(7) 0.5239(6)
N1 N 1.1481(5) 0.3088(4) 0.2941(3)
N2 N 1.0812(5) 0.4457(4) 0.2592(4)
O1 O 1.0278(5) 0.3834(3) 0.3547(3)
O2 O 0.9911(4) 0.2394(3) 0.3197(3)
O3 O 0.8771(5) 0.4348(3) 0.2341(3)
O4 O 0.8251(4) 0.2909(4) 0.1997(3)
O5 O 0.9382(4) 0.3791(4) 0.1408(3)
O6 O 0.9857(4) 0.2376(3) 0.1844(3)
F10? F 0.832(2) 0.4605(15) 0.0418(13)
F11? F 0.7916(12) 0.3726(13) -0.0235(9)
Dy2? Dy 1.0234(7) 0.3398(3) 0.2500(4)
C28 C 0.3209(6) 0.5030(6) 0.1920(4)
H21 H 0.36110 0.54200 0.20800
C29 C 0.2271(7) 0.5188(6) 0.1529(5)
H22 H 0.20700 0.56660 0.14350
C30 C 0.1681(7) 0.4638(7) 0.1300(5)
H23 H 0.10600 0.47270 0.10440
C31 C 0.2010(6) 0.3904(6) 0.1450(4)
C32 C 0.2955(6) 0.3823(5) 0.1851(4)
C33 C 0.3321(6) 0.3110(5) 0.2043(4)
C34 C 0.1439(7) 0.3285(6) 0.1231(6)
H24 H 0.08160 0.33480 0.09640
C35 C 0.1782(7) 0.2580(7) 0.1404(5)
H25 H 0.13970 0.21780 0.12530
C36 C 0.2723(7) 0.2497(6) 0.1812(5)
C37 C 0.3107(8) 0.1812(5) 0.2030(6)
H26 H 0.27450 0.13960 0.18930
C38 C 0.4002(9) 0.1758(5) 0.2439(6)
H27 H 0.42570 0.13030 0.25910
C39 C 0.4554(7) 0.2374(5) 0.2638(5)
H28 H 0.51750 0.23190 0.29170
C40 C 0.5430(9) 0.6094(7) 0.3907(7)
H29 H 0.50910 0.63700 0.35110
H30 H 0.60370 0.62940 0.41320
H31 H 0.51210 0.61140 0.41970
C41 C 0.5498(7) 0.5319(6) 0.3723(5)
C42 C 0.5974(7) 0.4831(6) 0.4242(5)
H32 H 0.62840 0.50110 0.46710
C43 C 0.5999(7) 0.4106(7) 0.4140(5)
C44 C 0.6393(10) 0.3583(9) 0.4735(5)
C45 C 0.4604(10) 0.5954(6) 0.0886(6)
H33 H 0.49320 0.62720 0.12540
H34 H 0.39730 0.61040 0.06710
H35 H 0.48770 0.59740 0.05740
C46 C 0.4654(7) 0.5161(6) 0.1147(5)
C47 C 0.4225(8) 0.4602(7) 0.0698(5)
H36 H 0.38680 0.47220 0.02560
C48 C 0.4304(8) 0.3894(6) 0.0878(5)
C49 C 0.3799(10) 0.3362(7) 0.0341(6)
C50 C 0.8315(7) 0.4824(7) 0.3702(6)
H37 H 0.81000 0.53160 0.36090
H38 H 0.87980 0.47490 0.35580
H39 H 0.85470 0.47350 0.41710
C51 C 0.7537(7) 0.4313(7) 0.3336(5)
C52 C 0.7719(7) 0.3572(6) 0.3395(5)
H40 H 0.83070 0.34160 0.36750
C53 C 0.7063(7) 0.3060(6) 0.3055(5)
C54 C 0.7333(8) 0.2292(8) 0.3199(7)
Dy3 Dy 0.52683(4) 0.41286(3) 0.25190(4)
F12 F 0.5773(8) 0.3297(10) 0.4864(7)
F13 F 0.6902(10) 0.3910(8) 0.5272(5)
F14 F 0.6891(6) 0.1956(5) 0.3507(5)
F15 F 0.7035(10) 0.1878(5) 0.2648(6)
F16 F 0.8192(6) 0.2155(5) 0.3529(6)
F17 F 0.3296(13) 0.297(1) 0.0485(7)
F18 F 0.3261(12) 0.3614(7) -0.0212(5)
F19 F 0.4355(9) 0.2929(9) 0.0261(7)
F20 F 0.6898(11) 0.3147(8) 0.4676(5)
N3 N 0.3542(5) 0.4402(4) 0.2066(4)
N4 N 0.4225(5) 0.3044(4) 0.2443(4)
O7 O 0.5655(5) 0.3755(4) 0.3603(3)
O8 O 0.5138(4) 0.5155(3) 0.3120(3)
O9 O 0.6232(5) 0.3154(3) 0.2648(3)
O10 O 0.6753(4) 0.4600(4) 0.2979(3)
O11 O 0.4721(4) 0.3631(3) 0.1450(3)
O12 O 0.5080(4) 0.5083(3) 0.1767(3)
Dy4? Dy 0.4798(6) 0.4153(3) 0.2462(4)
#END

data_CSD_CIF_ROQBOQ
_audit_creation_date 2014-10-14
_audit_creation_method CSD-ConQuest-V1
_database_code_CSD ROQBOQ
_database_code_depnum_ccdc_archive 'CCDC 1007916'
_chemical_formula_sum 'C35 H36 N5 O6 Sm1'
_chemical_formula_moiety
;
C35 H36 N5 O6 Sm1
;
_journal_coden_Cambridge 95
_journal_year 2014
_journal_page_first 1493
_journal_name_full 'Izv.Akad.Nauk SSSR,Ser.Khim.(Russ.)(Russ.Chem.Bull.) '
loop_
_publ_author_name
"A.N.Gusev"
"V.F.Shul'gin"
"V.Linert"
"M.Khasegava"
"G.G.Aleksandrov"
"I.L.Eremenko"
_chemical_name_systematic
;
tris(acetylacetonato)-(5-phenyl-2-(pyridin-2-yl)-5,6-dihydro[1,2,4]triazolo[1,
5-c]quinazoline)-samarium
;
_cell_volume  21235.955
_exptl_crystal_density_diffrn 1.088
_diffrn_ambient_temperature 296
#These two values have been output from a single CSD field.
_refine_ls_R_factor_gt 0.0681
_refine_ls_wR_factor_gt 0.0681
_symmetry_cell_setting rhombohedral
_symmetry_space_group_name_H-M 'R -3'
_symmetry_Int_Tables_number 148
loop_
_symmetry_equiv_pos_site_id
_symmetry_equiv_pos_as_xyz
1 x,y,z
2 -y,x-y,z
3 -x+y,-x,z
4 2/3+x,1/3+y,1/3+z
5 2/3-y,1/3+x-y,1/3+z
6 2/3-x+y,1/3-x,1/3+z
7 1/3+x,2/3+y,2/3+z
8 1/3-y,2/3+x-y,2/3+z
9 1/3-x+y,2/3-x,2/3+z
10 -x,-y,-z
11 y,-x+y,-z
12 x-y,x,-z
13 -2/3-x,-1/3-y,-1/3-z
14 -2/3+y,-1/3-x+y,-1/3-z
15 -2/3+x-y,-1/3+x,-1/3-z
16 -1/3-x,-2/3-y,-2/3-z
17 -1/3+y,-2/3-x+y,-2/3-z
18 -1/3+x-y,-2/3+x,-2/3-z
_cell_length_a 29.227(3)
_cell_length_b 29.227(3)
_cell_length_c 28.706(3)
_cell_angle_alpha 90
_cell_angle_beta 90
_cell_angle_gamma 120
_cell_formula_units_Z 18
loop_
_atom_type_symbol
_atom_type_radius_bond
C 0.68
H 0.23
N 0.68
O 0.68
Sm 1.98
loop_
_atom_site_label
_atom_site_type_symbol
_atom_site_fract_x
_atom_site_fract_y
_atom_site_fract_z
Sm1 Sm 0.692189(18) 0.014445(18) 0.218394(15)
O1 O 0.7823(3) 0.0831(3) 0.2109(2)
O2 O 0.7016(3) 0.0935(3) 0.2481(3)
O3 O 0.6274(2) -0.0685(2) 0.18457(18)
O4 O 0.6162(3) -0.0231(3) 0.2653(2)
O5 O 0.7394(3) -0.0304(3) 0.2067(2)
O6 O 0.7253(3) 0.0078(3) 0.2911(2)
N1 N 0.7137(3) 0.0271(3) 0.1275(2)
N2 N 0.6271(3) 0.0315(3) 0.1631(2)
N3 N 0.5867(3) 0.0056(3) 0.0936(2)
N4 N 0.5550(3) 0.0104(3) 0.1264(2)
N5 N 0.4755(3) -0.0058(3) 0.1577(2)
H1 H 0.44210 -0.02810 0.15850
C1 C 0.8107(4) 0.1310(5) 0.2296(4)
C2 C 0.7863(7) 0.1561(5) 0.2522(4)
H2 H 0.80910 0.18930 0.26450
C3 C 0.7349(5) 0.1384(5) 0.2583(4)
C4 C 0.7196(5) 0.1755(5) 0.2795(5)
H3 H 0.68180 0.15830 0.28210
H4 H 0.73210 0.20630 0.26020
H5 H 0.73510 0.18580 0.30990
C5 C 0.8725(5) 0.1528(5) 0.2227(5)
H6 H 0.87760 0.12720 0.20600
H7 H 0.88930 0.15910 0.25260
H8 H 0.88790 0.18520 0.20540
C6 C 0.5776(4) -0.0970(3) 0.1889(3)
C7 C 0.5483(4) -0.0915(4) 0.2235(4)
H9 H 0.51170 -0.11190 0.22110
C8 C 0.5682(4) -0.0588(4) 0.2610(4)
C9 C 0.5302(5) -0.0656(5) 0.2997(4)
H10 H 0.54890 -0.04040 0.32390
H11 H 0.51480 -0.10070 0.31210
H12 H 0.50280 -0.05990 0.28760
C10 C 0.5517(5) -0.1388(4) 0.1504(4)
H13 H 0.57840 -0.13660 0.12950
H14 H 0.52690 -0.13280 0.13350
H15 H 0.53360 -0.17340 0.16430
C11 C 0.7782(4) -0.0298(4) 0.2281(4)
C12 C 0.7921(4) -0.0124(5) 0.2745(4)
H16 H 0.82160 -0.01220 0.28690
C13 C 0.7651(5) 0.0043(5) 0.3028(4)
C14 C 0.7834(6) 0.0191(7) 0.3523(4)
H17 H 0.76120 0.02980 0.36790
H18 H 0.81920 0.04770 0.35250
H19 H 0.78140 -0.01080 0.36810
C15 C 0.8099(5) -0.0488(6) 0.1991(5)
H20 H 0.79470 -0.05880 0.16850
H21 H 0.80890 -0.07860 0.21410
H22 H 0.84590 -0.02070 0.19650
C16 C 0.7578(4) 0.0305(4) 0.1105(3)
H23 H 0.78440 0.03590 0.13130
C17 C 0.7660(4) 0.0263(4) 0.0636(3)
H24 H 0.79750 0.02920 0.05320
C18 C 0.7271(4) 0.0179(4) 0.0333(3)
H25 H 0.73080 0.01420 0.00160
C19 C 0.6815(4) 0.0150(4) 0.0509(3)
H26 H 0.65440 0.01000 0.03080
C20 C 0.6764(3) 0.0195(3) 0.0974(3)
C21 C 0.6290(3) 0.0182(3) 0.1187(3)
C22 C 0.5809(4) 0.0271(3) 0.1666(3)
C23 C 0.5546(4) 0.0376(4) 0.2043(3)
C24 C 0.5789(5) 0.0606(5) 0.2464(3)
H27 H 0.61450 0.07210 0.25080
C25 C 0.5507(5) 0.0663(6) 0.2809(4)
H28 H 0.56760 0.08230 0.30860
C26 C 0.4970(5) 0.0490(5) 0.2761(4)
H29 H 0.47840 0.05340 0.30020
C27 C 0.4721(5) 0.0253(5) 0.2353(4)
H30 H 0.43620 0.01300 0.23170
C28 C 0.5010(4) 0.0198(4) 0.1992(3)
C29 C 0.5030(4) 0.0039(4) 0.1142(3)
H31 H 0.50830 0.03730 0.10130
C30 C 0.4719(4) -0.0388(5) 0.0807(3)
C31 C 0.4504(4) -0.0301(5) 0.0418(4)
H32 H 0.45650 0.00390 0.03640
C32 C 0.4202(6) -0.0692(8) 0.0100(5)
H33 H 0.40630 -0.06210 -0.01630
C33 C 0.4120(6) -0.1164(9) 0.0184(5)
H34 H 0.39230 -0.14310 -0.00290
C34 C 0.4315(7) -0.1288(7) 0.0582(7)
H35 H 0.42420 -0.16320 0.06360
C35 C 0.4625(5) -0.0878(5) 0.0897(5)
H36 H 0.47620 -0.09460 0.11640
#END

data_CSD_CIF_ROQBUW
_audit_creation_date 2014-10-14
_audit_creation_method CSD-ConQuest-V1
_database_code_CSD ROQBUW
_database_code_depnum_ccdc_archive 'CCDC 1007917'
_chemical_formula_sum 'C35 H36 N5 O6 Tb1'
_chemical_formula_moiety
;
C35 H36 N5 O6 Tb1
;
_journal_coden_Cambridge 95
_journal_year 2014
_journal_page_first 1493
_journal_name_full 'Izv.Akad.Nauk SSSR,Ser.Khim.(Russ.)(Russ.Chem.Bull.) '
loop_
_publ_author_name
"A.N.Gusev"
"V.F.Shul'gin"
"V.Linert"
"M.Khasegava"
"G.G.Aleksandrov"
"I.L.Eremenko"
_chemical_name_systematic
;
tris(acetylacetonato)-(5-phenyl-2-(pyridin-2-yl)-5,6-dihydro[1,2,4]triazolo[1,
5-c]quinazoline)-terbium(iii)
;
_cell_volume  21586.042
_exptl_crystal_density_diffrn 1.082
_diffrn_ambient_temperature 296
#These two values have been output from a single CSD field.
_refine_ls_R_factor_gt 0.081
_refine_ls_wR_factor_gt 0.081
_symmetry_cell_setting rhombohedral
_symmetry_space_group_name_H-M 'R -3'
_symmetry_Int_Tables_number 148
loop_
_symmetry_equiv_pos_site_id
_symmetry_equiv_pos_as_xyz
1 x,y,z
2 -y,x-y,z
3 -x+y,-x,z
4 2/3+x,1/3+y,1/3+z
5 2/3-y,1/3+x-y,1/3+z
6 2/3-x+y,1/3-x,1/3+z
7 1/3+x,2/3+y,2/3+z
8 1/3-y,2/3+x-y,2/3+z
9 1/3-x+y,2/3-x,2/3+z
10 -x,-y,-z
11 y,-x+y,-z
12 x-y,x,-z
13 -2/3-x,-1/3-y,-1/3-z
14 -2/3+y,-1/3-x+y,-1/3-z
15 -2/3+x-y,-1/3+x,-1/3-z
16 -1/3-x,-2/3-y,-2/3-z
17 -1/3+y,-2/3-x+y,-2/3-z
18 -1/3+x-y,-2/3+x,-2/3-z
_cell_length_a 29.4754(16)
_cell_length_b 29.4754
_cell_length_c 28.6895(19)
_cell_angle_alpha 90
_cell_angle_beta 90
_cell_angle_gamma 120
_cell_formula_units_Z 18
loop_
_atom_type_symbol
_atom_type_radius_bond
C 0.68
H 0.23
N 0.68
O 0.68
Tb 1.94
loop_
_atom_site_label
_atom_site_type_symbol
_atom_site_fract_x
_atom_site_fract_y
_atom_site_fract_z
Tb1 Tb 0.68858(2) 0.01299(2) 0.220297(19)
O1 O 0.7763(4) 0.0811(4) 0.2138(4)
O2 O 0.6943(5) 0.0881(4) 0.2512(4)
O3 O 0.6282(4) -0.0675(3) 0.1857(3)
O4 O 0.6149(4) -0.0259(4) 0.2674(3)
O5 O 0.7357(5) -0.0297(5) 0.2073(4)
O6 O 0.7207(4) 0.0070(5) 0.2923(3)
N1 N 0.7114(4) 0.0276(5) 0.1319(4)
N2 N 0.6240(4) 0.0290(5) 0.1667(4)
N3 N 0.5857(5) 0.0069(5) 0.0964(4)
N4 N 0.5536(5) 0.0097(5) 0.1277(4)
N5 N 0.4730(5) -0.0056(6) 0.1580(4)
H1 H 0.43970 -0.02680 0.15760
C1 C 0.8021(7) 0.1273(7) 0.2299(6)
C2 C 0.7819(8) 0.1538(8) 0.2523(7)
H2 H 0.80510 0.18750 0.26260
C3 C 0.7297(7) 0.1340(6) 0.2606(6)
C4 C 0.7112(11) 0.1692(9) 0.2837(10)
H3 H 0.67380 0.14980 0.28730
H4 H 0.72080 0.19920 0.26440
H5 H 0.72750 0.18040 0.31370
C5 C 0.8629(7) 0.1515(10) 0.2249(9)
H6 H 0.87010 0.12730 0.20870
H7 H 0.87870 0.15840 0.25530
H8 H 0.87720 0.18360 0.20760
C6 C 0.5793(6) -0.0970(5) 0.1883(5)
C7 C 0.5481(7) -0.0944(7) 0.2234(6)
H9 H 0.51200 -0.11610 0.22070
C8 C 0.5675(7) -0.0606(7) 0.2635(6)
C9 C 0.5307(8) -0.0704(8) 0.3022(7)
H10 H 0.54840 -0.04530 0.32660
H11 H 0.51790 -0.10510 0.31420
H12 H 0.50170 -0.06700 0.29110
C10 C 0.5526(7) -0.1365(7) 0.1494(7)
H13 H 0.57850 -0.13450 0.12790
H14 H 0.52860 -0.12890 0.13340
H15 H 0.53380 -0.17110 0.16240
C11 C 0.7743(6) -0.0277(7) 0.2297(6)
C12 C 0.7862(8) -0.0136(9) 0.2748(6)
H16 H 0.81400 -0.01590 0.28750
C13 C 0.7601(8) 0.0046(9) 0.3045(6)
C14 C 0.7769(11) 0.0164(15) 0.3535(8)
H17 H 0.75540 0.02740 0.36950
H18 H 0.81290 0.04390 0.35470
H19 H 0.77340 -0.01440 0.36830
C15 C 0.8079(9) -0.0427(12) 0.2008(8)
H20 H 0.79360 -0.05200 0.16990
H21 H 0.80830 -0.07190 0.21500
H22 H 0.84290 -0.01350 0.19920
C16 C 0.7556(6) 0.0325(7) 0.1140(5)
H23 H 0.78170 0.03760 0.13510
C17 C 0.7661(6) 0.0308(6) 0.0683(6)
H24 H 0.79810 0.03520 0.05820
C18 C 0.7269(6) 0.0224(6) 0.0376(5)
H25 H 0.73170 0.01970 0.00590
C19 C 0.6804(6) 0.0178(6) 0.0532(5)
H26 H 0.65410 0.01280 0.03240
C20 C 0.6744(5) 0.0208(5) 0.1007(4)
C21 C 0.6260(5) 0.0177(6) 0.1204(4)
C22 C 0.5760(6) 0.0233(5) 0.1695(5)
C23 C 0.5510(6) 0.0343(7) 0.2075(5)
C24 C 0.5728(7) 0.0535(7) 0.2498(6)
H27 H 0.60730 0.06220 0.25540
C25 C 0.5438(8) 0.0604(9) 0.2853(6)
H28 H 0.55950 0.07480 0.31370
C26 C 0.4925(9) 0.0459(10) 0.2779(7)
H29 H 0.47380 0.05180 0.30080
C27 C 0.4681(7) 0.0223(8) 0.2363(6)
H30 H 0.43240 0.00970 0.23280
C28 C 0.4966(6) 0.0173(6) 0.1995(5)
C29 C 0.5024(6) 0.0047(7) 0.1144(5)
H31 H 0.50850 0.03800 0.10140
C30 C 0.4726(6) -0.0375(7) 0.0806(5)
C31 C 0.4506(8) -0.0287(9) 0.0428(6)
H32 H 0.45560 0.00460 0.03790
C32 C 0.4210(9) -0.0679(15) 0.0114(8)
H33 H 0.40570 -0.06130 -0.01410
C33 C 0.4145(10) -0.1172(14) 0.0186(11)
H34 H 0.39740 -0.14340 -0.00350
C34 C 0.4337(12) -0.1269(13) 0.0587(15)
H35 H 0.42680 -0.16070 0.06530
C35 C 0.4630(8) -0.0867(10) 0.0892(9)
H36 H 0.47640 -0.09330 0.11610
#END

data_CSD_CIF_RUNFEN
_audit_creation_date 2015-08-07
_audit_creation_method CSD-ConQuest-V1
_database_code_CSD RUNFEN
_database_code_depnum_ccdc_archive 'CCDC 866669'
_chemical_formula_sum 'C38 H30 F18 N4 O12 Tb2'
_chemical_formula_moiety
;
C38 H30 F18 N4 O12 Tb2
;
_journal_coden_Cambridge 580
_journal_volume 102
_journal_year 2015
_journal_page_first 16
_journal_name_full 'Polyhedron '
loop_
_publ_author_name
"R.Ilmi"
"K.Iftikhar"
_chemical_name_systematic
;
bis(\m~2~-2,2'-Bipyrimidine)-hexakis(1,1,1-trifluoro-4-oxopent-2-en-2-olato)-d
i-terbium(iii)
;
_cell_volume   2576.182
_exptl_crystal_colour 'white'
_exptl_crystal_density_diffrn 1.798
_exptl_crystal_description 'block'
_diffrn_ambient_temperature 298
#These two values have been output from a single CSD field.
_refine_ls_R_factor_gt 0.0666
_refine_ls_wR_factor_gt 0.0666
_symmetry_cell_setting monoclinic
_symmetry_space_group_name_H-M 'P 21/n'
_symmetry_Int_Tables_number 14
loop_
_symmetry_equiv_pos_site_id
_symmetry_equiv_pos_as_xyz
1 x,y,z
2 1/2-x,1/2+y,1/2-z
3 -x,-y,-z
4 -1/2+x,-1/2-y,-1/2+z
_cell_length_a 12.653(3)
_cell_length_b 13.239(3)
_cell_length_c 16.523(4)
_cell_angle_alpha 90
_cell_angle_beta 111.446(4)
_cell_angle_gamma 90
_cell_formula_units_Z 2
loop_
_atom_type_symbol
_atom_type_radius_bond
C 0.68
H 0.23
F 0.64
N 0.68
O 0.68
Tb 1.94
loop_
_atom_site_label
_atom_site_type_symbol
_atom_site_fract_x
_atom_site_fract_y
_atom_site_fract_z
Tb1 Tb 0.97664(3) 0.22390(3) 0.89658(2)
C1 C 1.0606(9) 0.4388(8) 0.8456(8)
C2 C 1.1238(9) 0.4692(8) 0.9265(8)
H1 H 1.17420 0.52240 0.93270
C3 C 1.1180(8) 0.4249(8) 1.0030(7)
C4 C 1.0776(13) 0.4921(13) 0.7683(11)
C5 C 1.178(1) 0.4736(10) 1.0898(8)
H2 H 1.15610 0.44080 1.13300
H3 H 1.15770 0.54380 1.08670
H4 H 1.25850 0.46750 1.10510
C6 C 1.0433(8) 0.1470(8) 0.7327(6)
C7 C 1.1547(9) 0.1732(10) 0.7651(7)
H5 H 1.19550 0.16990 0.72840
C8 C 1.2114(9) 0.2048(9) 0.8512(8)
C9 C 0.9947(13) 0.1086(15) 0.6392(9)
C10 C 1.3371(11) 0.2260(16) 0.8817(11)
H6 H 1.35200 0.29290 0.90550
H7 H 1.36190 0.22060 0.83340
H8 H 1.37740 0.17780 0.92560
C11 C 0.6942(8) 0.2503(7) 0.8320(8)
C12 C 0.6850(9) 0.2218(8) 0.9104(8)
H9 H 0.61330 0.21450 0.91310
C13 C 0.7797(9) 0.2043(7) 0.9843(7)
C14 C 0.7605(12) 0.1663(13) 1.0652(9)
C15 C 0.5873(9) 0.2803(10) 0.7590(9)
H10 H 0.59190 0.35000 0.74480
H11 H 0.52350 0.27070 0.77650
H12 H 0.57800 0.23920 0.70900
C16 C 0.8048(8) 0.0083(7) 0.8361(5)
H13 H 0.76980 0.04800 0.78720
C17 C 0.7559(8) -0.0822(7) 0.8434(6)
H14 H 0.68900 -0.10460 0.80080
C18 C 0.8106(7) -0.1373(7) 0.9164(6)
H15 H 0.77900 -0.19840 0.92390
C19 C 0.9464(6) -0.0179(6) 0.9645(5)
F1 F 0.9024(9) 0.1573(10) 0.5917(5)
F2 F 1.0655(8) 0.1109(12) 0.5983(6)
F3 F 0.9607(8) 0.0143(9) 0.6380(6)
F4 F 1.112(2) 0.4392(11) 0.7254(11)
F5 F 0.9809(10) 0.532(1) 0.7185(8)
F6 F 1.137(1) 0.5733(10) 0.7885(8)
F7 F 0.6569(8) 0.1553(11) 1.0573(6)
F8 F 0.8109(13) 0.0796(10) 1.0899(8)
F9 F 0.8063(10) 0.2235(11) 1.1318(7)
O1 O 0.9893(5) 0.3681(5) 0.8221(4)
O2 O 1.0654(5) 0.3452(5) 1.0010(4)
O3 O 0.9712(5) 0.1496(5) 0.7686(4)
O4 O 1.1652(5) 0.2162(5) 0.9047(4)
O5 O 0.7844(5) 0.2554(5) 0.8182(4)
O6 O 0.8818(5) 0.2135(5) 0.9945(4)
N1 N 0.9076(6) -0.1070(5) 0.9774(4)
N2 N 0.9011(6) 0.0411(5) 0.8971(4)
Tb1B Tb 1.02336(3) -0.22390(3) 1.10342(2)
C1B C 0.9394(9) -0.4388(8) 1.1544(8)
C2B C 0.8762(9) -0.4692(8) 1.0735(8)
H1B H 0.82580 -0.52240 1.06730
C3B C 0.8820(8) -0.4249(8) 0.9970(7)
C4B C 0.9224(13) -0.4921(13) 1.2317(11)
C5B C 0.822(1) -0.4736(10) 0.9102(8)
H2B H 0.84390 -0.44080 0.86700
H3B H 0.84230 -0.54380 0.91330
H4B H 0.74150 -0.46750 0.89490
C6B C 0.9567(8) -0.1470(8) 1.2673(6)
C7B C 0.8453(9) -0.1732(10) 1.2349(7)
H5B H 0.80450 -0.16990 1.27160
C8B C 0.7886(9) -0.2048(9) 1.1488(8)
C9B C 1.0053(13) -0.1086(15) 1.3608(9)
C10B C 0.6629(11) -0.2260(16) 1.1183(11)
H6B H 0.64800 -0.29290 1.09450
H7B H 0.63810 -0.22060 1.16660
H8B H 0.62260 -0.17780 1.07440
C11B C 1.3058(8) -0.2503(7) 1.1680(8)
C12B C 1.3150(9) -0.2218(8) 1.0896(8)
H9B H 1.38670 -0.21450 1.08690
C13B C 1.2203(9) -0.2043(7) 1.0157(7)
C14B C 1.2395(12) -0.1663(13) 0.9348(9)
C15B C 1.4127(9) -0.2803(10) 1.2410(9)
H10B H 1.40810 -0.35000 1.25520
H11B H 1.47650 -0.27070 1.22350
H12B H 1.42200 -0.23920 1.29100
C16B C 1.1952(8) -0.0083(7) 1.1639(5)
H13B H 1.23020 -0.04800 1.21280
C17B C 1.2441(8) 0.0822(7) 1.1566(6)
H14B H 1.31100 0.10460 1.19920
C18B C 1.1894(7) 0.1373(7) 1.0836(6)
H15B H 1.22100 0.19840 1.07610
C19B C 1.0536(6) 0.0179(6) 1.0355(5)
F1B F 1.0976(9) -0.1573(10) 1.4083(5)
F2B F 0.9345(8) -0.1109(12) 1.4017(6)
F3B F 1.0393(8) -0.0143(9) 1.3620(6)
F4B F 0.888(2) -0.4392(11) 1.2746(11)
F5B F 1.0191(10) -0.532(1) 1.2815(8)
F6B F 0.863(1) -0.5733(10) 1.2115(8)
F7B F 1.3431(8) -0.1553(11) 0.9427(6)
F8B F 1.1891(13) -0.0796(10) 0.9101(8)
F9B F 1.1937(10) -0.2235(11) 0.8682(7)
O1B O 1.0107(5) -0.3681(5) 1.1779(4)
O2B O 0.9346(5) -0.3452(5) 0.9990(4)
O3B O 1.0288(5) -0.1496(5) 1.2314(4)
O4B O 0.8348(5) -0.2162(5) 1.0953(4)
O5B O 1.2156(5) -0.2554(5) 1.1818(4)
O6B O 1.1182(5) -0.2135(5) 1.0055(4)
N1B N 1.0924(6) 0.1070(5) 1.0226(4)
N2B N 1.0989(6) -0.0411(5) 1.1029(4)
#END

data_CSD_CIF_SELCIW
_audit_creation_date 2006-10-10
_audit_creation_method CSD-ConQuest-V1
_database_code_CSD SELCIW
_database_code_depnum_ccdc_archive 'CCDC 264393'
_chemical_formula_sum 'C25 H29 Lu1 N2 O6'
_chemical_formula_moiety
;
C25 H29 Lu1 N2 O6
;
_journal_coden_Cambridge 119
_journal_volume 789
_journal_year 2006
_journal_page_first 187
_journal_name_full 'J.Mol.Struct. '
loop_
_publ_author_name
"A.Yu.Rogachev"
"A.V.Mironov"
"S.I.Troyanov"
"N.P.Kuzmina"
"A.V.Nemukhin"
_chemical_name_systematic
;
tris(Acetylacetonato-O,O')-(2,2'-bipyridine-N,N')-lutetium(iii)
;
_cell_volume   5384.044
_exptl_crystal_colour 'colorless'
_exptl_crystal_preparation 'ethanol'
_diffrn_ambient_temperature 293
#These two values have been output from a single CSD field.
_refine_ls_R_factor_gt 0.0412
_refine_ls_wR_factor_gt 0.0412
_symmetry_cell_setting monoclinic
_symmetry_space_group_name_H-M 'P 21/c'
_symmetry_Int_Tables_number 14
loop_
_symmetry_equiv_pos_site_id
_symmetry_equiv_pos_as_xyz
1 x,y,z
2 -x,1/2+y,1/2-z
3 -x,-y,-z
4 x,-1/2-y,-1/2+z
_cell_length_a 18.845(3)
_cell_length_b 13.4173(14)
_cell_length_c 22.6139(17)
_cell_angle_alpha 90
_cell_angle_beta 109.676(9)
_cell_angle_gamma 90
_cell_formula_units_Z 8
loop_
_atom_type_symbol
_atom_type_radius_bond
C 0.68
H 0.23
Lu 1.72
N 0.68
O 0.68
loop_
_atom_site_label
_atom_site_type_symbol
_atom_site_fract_x
_atom_site_fract_y
_atom_site_fract_z
Lu1 Lu 0.119131(18) 0.17345(3) 0.151739(17)
O1 O 0.1662(3) 0.0424(5) 0.1143(3)
O2 O 0.0526(3) 0.1677(5) 0.0473(3)
C1 C 0.2039(6) -0.0887(8) 0.0606(5)
C2 C 0.1577(5) 0.0058(7) 0.0613(5)
C3 C 0.1082(6) 0.0439(8) 0.0058(5)
C4 C 0.0579(5) 0.1197(8) 0.0020(4)
C5 C 0.0030(6) 0.1487(10) -0.0621(5)
O3 O 0.2340(3) 0.1569(4) 0.2262(3)
O4 O 0.1044(4) 0.2245(5) 0.2434(3)
C6 C 0.3439(6) 0.1339(10) 0.3164(5)
C7 C 0.2599(6) 0.1601(7) 0.2855(5)
C8 C 0.2192(7) 0.1857(9) 0.3229(5)
C9 C 0.1436(7) 0.2145(9) 0.3013(5)
C10 C 0.1023(8) 0.2356(13) 0.3475(6)
O5 O 0.1960(3) 0.2586(5) 0.1107(3)
O6 O 0.0722(4) 0.3300(5) 0.1360(3)
C11 C 0.2432(8) 0.3532(12) 0.0418(7)
C12 C 0.1855(6) 0.3359(9) 0.0762(5)
C13 C 0.1279(7) 0.4055(10) 0.0702(5)
C14 C 0.0756(6) 0.3990(8) 0.1005(5)
C15 C 0.0177(7) 0.4851(9) 0.0899(6)
N1 N 0.0938(4) 0.0199(6) 0.2065(3)
N2 N -0.0155(4) 0.1403(6) 0.1389(4)
C16 C 0.1495(5) -0.0409(8) 0.2366(5)
C17 C 0.1399(7) -0.1178(8) 0.2735(6)
C18 C 0.073(1) -0.1332(12) 0.2794(7)
C19 C 0.0138(6) -0.0679(10) 0.2485(6)
C20 C 0.0266(6) 0.0074(7) 0.2134(5)
C21 C -0.0328(5) 0.0745(8) 0.1773(5)
C22 C -0.1052(7) 0.0720(9) 0.1796(7)
C23 C -0.1603(6) 0.1335(11) 0.1422(7)
C24 C -0.1428(6) 0.195(1) 0.1021(6)
C25 C -0.0694(5) 0.1973(9) 0.1002(4)
Lu2 Lu 0.392603(18) 0.68414(3) 0.342147(17)
O7 O 0.4687(3) 0.6774(5) 0.4451(3)
O8 O 0.3359(3) 0.5770(5) 0.3897(3)
C26 C 0.5275(7) 0.6683(11) 0.5544(5)
C27 C 0.4647(6) 0.6391(8) 0.4942(5)
C28 C 0.4068(7) 0.5734(9) 0.4960(5)
C29 C 0.3485(5) 0.5428(7) 0.4436(5)
C30 C 0.2969(6) 0.4622(8) 0.4517(6)
O9 O 0.3297(3) 0.7969(5) 0.3809(3)
O10 O 0.4631(4) 0.8243(5) 0.3561(3)
C31 C 0.2970(7) 0.916(1) 0.4449(6)
C32 C 0.3510(5) 0.8749(8) 0.4144(5)
C33 C 0.4194(6) 0.9223(8) 0.4235(5)
C34 C 0.4694(5) 0.8976(7) 0.3926(5)
C35 C 0.5410(7) 0.9625(9) 0.4025(7)
O11 O 0.2745(3) 0.6929(5) 0.2693(3)
O12 O 0.4101(3) 0.7203(5) 0.2488(3)
C36 C 0.1638(6) 0.6703(11) 0.1813(5)
C37 C 0.2499(6) 0.6871(8) 0.2101(5)
C38 C 0.2918(6) 0.6929(8) 0.1714(5)
C39 C 0.3687(6) 0.7114(7) 0.1910(5)
C40 C 0.4070(7) 0.7247(9) 0.1422(5)
N3 N 0.5119(3) 0.5993(5) 0.3421(3)
N4 N 0.3778(4) 0.5173(5) 0.2891(3)
C41 C 0.5791(5) 0.6428(8) 0.3722(4)
C42 C 0.6453(4) 0.6102(8) 0.3636(5)
C43 C 0.6411(5) 0.5317(9) 0.3242(5)
C44 C 0.5736(5) 0.4848(7) 0.2947(5)
C45 C 0.5091(4) 0.5192(6) 0.3045(4)
C46 C 0.4349(4) 0.4720(6) 0.2770(4)
C47 C 0.4240(6) 0.3857(7) 0.2425(5)
C48 C 0.3525(7) 0.3444(8) 0.2191(6)
C49 C 0.2949(5) 0.3886(7) 0.2334(5)
C50 C 0.3087(5) 0.4738(7) 0.2679(5)
H1 H 0.099(5) 0.009(6) -0.035(3)
H2 H 0.238(5) 0.174(6) 0.371(2)
H3 H 0.116(5) 0.464(5) 0.045(4)
H4 H 0.420(5) 0.548(6) 0.539(2)
H5 H 0.425(5) 0.980(5) 0.451(3)
H6 H 0.268(5) 0.675(6) 0.124(2)
H7 H 0.199(3) -0.031(4) 0.232(3)
H8 H 0.183(3) -0.170(4) 0.291(3)
H9 H 0.0676(18) -0.181(4) 0.311(3)
H10 H -0.038(3) -0.083(4) 0.247(3)
H11 H -0.1186(16) 0.020(5) 0.205(3)
H12 H -0.208(3) 0.140(4) 0.149(3)
H13 H -0.180(2) 0.236(5) 0.075(3)
H14 H -0.0594(15) 0.233(5) 0.065(3)
H15 H 0.5826(12) 0.699(5) 0.408(3)
H16 H 0.697(2) 0.644(5) 0.387(3)
H17 H 0.686(2) 0.510(4) 0.316(3)
H18 H 0.5726(12) 0.417(4) 0.271(3)
H19 H 0.468(2) 0.348(4) 0.239(3)
H20 H 0.3444(15) 0.280(4) 0.196(3)
H21 H 0.243(3) 0.358(4) 0.219(3)
H22 H 0.268(2) 0.504(4) 0.278(3)
#END

data_CSD_CIF_SELCOC
_audit_creation_date 2006-10-10
_audit_creation_method CSD-ConQuest-V1
_database_code_CSD SELCOC
_database_code_depnum_ccdc_archive 'CCDC 267006 (not 267005 as published)'
_chemical_formula_sum 'C27 H29 Lu1 N2 O6'
_chemical_formula_moiety
;
C27 H29 Lu1 N2 O6
;
_journal_coden_Cambridge 119
_journal_volume 789
_journal_year 2006
_journal_page_first 187
_journal_name_full 'J.Mol.Struct. '
loop_
_publ_author_name
"A.Yu.Rogachev"
"A.V.Mironov"
"S.I.Troyanov"
"N.P.Kuzmina"
"A.V.Nemukhin"
_chemical_name_systematic
;
tris(Acetylacetonato-O,O')-(1,10-phenanthroline-N,N')-lutetium(iii)
;
_cell_volume   2850.312
_exptl_crystal_density_diffrn 1.521
_exptl_crystal_preparation 'ethanol'
_diffrn_ambient_temperature 110
#These two values have been output from a single CSD field.
_refine_ls_R_factor_gt 0.0691
_refine_ls_wR_factor_gt 0.0691
_symmetry_cell_setting monoclinic
_symmetry_space_group_name_H-M 'P 21/n'
_symmetry_Int_Tables_number 14
loop_
_symmetry_equiv_pos_site_id
_symmetry_equiv_pos_as_xyz
1 x,y,z
2 1/2-x,1/2+y,1/2-z
3 -x,-y,-z
4 -1/2+x,-1/2-y,-1/2+z
_cell_length_a 9.465(2)
_cell_length_b 20.932(4)
_cell_length_c 14.548(3)
_cell_angle_alpha 90
_cell_angle_beta 98.54(3)
_cell_angle_gamma 90
_cell_formula_units_Z 4
loop_
_atom_type_symbol
_atom_type_radius_bond
C 0.68
H 0.23
Lu 1.72
N 0.68
O 0.68
loop_
_atom_site_label
_atom_site_type_symbol
_atom_site_fract_x
_atom_site_fract_y
_atom_site_fract_z
Lu1 Lu 0.07745(5) 0.15256(2) 0.34126(3)
O1 O -0.0558(12) 0.1350(5) 0.2013(7)
O2 O 0.2323(11) 0.1103(5) 0.2499(7)
O3 O 0.2385(9) 0.1109(5) 0.4553(7)
O4 O 0.0199(11) 0.0472(5) 0.3476(7)
O5 O -0.0409(12) 0.2470(5) 0.3002(7)
O6 O 0.2486(11) 0.2286(5) 0.3447(7)
N1 N 0.0543(11) 0.2067(5) 0.4932(7)
N2 N -0.1657(10) 0.1470(5) 0.3882(7)
C1 C -0.183(2) 0.0800(13) 0.0725(15)
H1 H -0.16050 0.06430 0.01290
H2 H -0.24250 0.11840 0.06210
H3 H -0.23470 0.04690 0.10160
C2 C -0.046(2) 0.0961(9) 0.1355(11)
C3 C 0.079(2) 0.0644(12) 0.1247(16)
C4 C 0.212(2) 0.0737(9) 0.1787(13)
C5 C 0.343(3) 0.0356(18) 0.165(2)
H4 H 0.40140 0.06050 0.12830
H5 H 0.31310 -0.00440 0.13280
H6 H 0.39800 0.02580 0.22600
C6 C 0.388(2) 0.0524(10) 0.5683(12)
H7 H 0.41120 0.00760 0.58380
H8 H 0.35820 0.07370 0.62210
H9 H 0.47320 0.07380 0.55180
C7 C 0.2696(16) 0.0554(7) 0.4874(10)
C8 C 0.2037(19) -0.0003(7) 0.4531(12)
C9 C 0.0797(18) -0.0013(6) 0.3848(10)
C10 C 0.009(3) -0.0652(9) 0.3547(18)
H10 H -0.07960 -0.06970 0.38170
H11 H 0.07390 -0.10020 0.37630
H12 H -0.01360 -0.06650 0.28670
C11 C -0.131(3) 0.3506(9) 0.3032(19)
H13 H -0.11810 0.38320 0.25690
H14 H -0.13930 0.37130 0.36260
H15 H -0.21910 0.32650 0.28210
C12 C -0.0055(19) 0.3057(7) 0.3154(10)
C13 C 0.132(2) 0.3288(8) 0.3340(14)
C14 C 0.256(2) 0.2884(7) 0.3452(12)
C15 C 0.399(2) 0.3191(10) 0.3578(16)
H16 H 0.42430 0.33320 0.42240
H17 H 0.39770 0.35610 0.31630
H18 H 0.47050 0.28830 0.34300
C16 C 0.1640(18) 0.2314(8) 0.5516(10)
H19 H 0.25790 0.22360 0.53850
C17 C 0.150(2) 0.2672(9) 0.6292(12)
H20 H 0.23130 0.28530 0.66590
C18 C 0.018(3) 0.2762(10) 0.6524(12)
H21 H 0.00710 0.29910 0.70730
C19 C -0.103(2) 0.2516(8) 0.5953(10)
C20 C -0.0787(14) 0.2150(6) 0.5157(8)
C21 C -0.1948(14) 0.1839(6) 0.4599(8)
C22 C -0.3351(15) 0.1908(9) 0.4813(11)
C23 C -0.4437(16) 0.1579(10) 0.4230(14)
H22 H -0.53940 0.16010 0.43530
C24 C -0.4138(16) 0.1236(11) 0.3508(10)
H23 H -0.48810 0.10460 0.30850
C25 C -0.2737(16) 0.1165(8) 0.3390(12)
H24 H -0.25280 0.08770 0.29240
C26 C -0.247(2) 0.2586(9) 0.6131(13)
H25 H -0.26660 0.28510 0.66270
C27 C -0.353(2) 0.2289(11) 0.5616(15)
H26 H -0.44560 0.23270 0.57800
#END

data_CSD_CIF_SETPIR
_audit_creation_date 2007-05-01
_audit_creation_method CSD-ConQuest-V1
_database_code_CSD SETPIR
_database_code_depnum_ccdc_archive 'CCDC 638310'
_chemical_formula_sum 'C27 H29 Er1 N2 O6'
_chemical_formula_moiety
;
C27 H29 Er1 N2 O6
;
_journal_coeditor_code "IUCr DN3035"
_journal_coden_Cambridge 591
_journal_volume 63
_journal_year 2007
_journal_page_first m74
_journal_name_full 'Acta Crystallogr.,Sect.C:Cryst.Struct.Commun. '
loop_
_publ_author_name
"G.M.Neelgund"
"S.A.Shivashankar"
"T.Narasimhamurthy"
"R.S.Rathore"
_chemical_name_systematic
;
tris(Acetylacetonato-\k^2^O,O')-(1,10-phenanthroline-\k^2^N,N')-erbium(iii)
;
_chemical_melting_point 524.15
_cell_volume   2880.987
_exptl_crystal_colour 'pale green'
_exptl_crystal_density_diffrn 1.487
_exptl_special_details
;
isostructural with Eu(iii), Pr(iii) and Sm(iii) analogues

;
_exptl_crystal_description 'plate'
_exptl_crystal_preparation 'ethanol'
_diffrn_ambient_temperature 295
#These two values have been output from a single CSD field.
_refine_ls_R_factor_gt 0.041
_refine_ls_wR_factor_gt 0.041
_symmetry_cell_setting monoclinic
_symmetry_space_group_name_H-M 'P 21/n'
_symmetry_Int_Tables_number 14
loop_
_symmetry_equiv_pos_site_id
_symmetry_equiv_pos_as_xyz
1 x,y,z
2 1/2-x,1/2+y,1/2-z
3 -x,-y,-z
4 -1/2+x,-1/2-y,-1/2+z
_cell_length_a 9.466(1)
_cell_length_b 21.025(3)
_cell_length_c 14.643(2)
_cell_angle_alpha 90
_cell_angle_beta 98.670(2)
_cell_angle_gamma 90
_cell_formula_units_Z 4
loop_
_atom_type_symbol
_atom_type_radius_bond
C 0.68
H 0.23
Er 1.73
N 0.68
O 0.68
loop_
_atom_site_label
_atom_site_type_symbol
_atom_site_fract_x
_atom_site_fract_y
_atom_site_fract_z
Er1 Er 0.42143(3) 0.346998(12) 0.159196(18)
O1 O 0.4798(5) 0.4531(2) 0.1535(3)
O2 O 0.2593(4) 0.3904(2) 0.0445(3)
O3 O 0.5576(5) 0.3651(2) 0.3004(3)
O4 O 0.2675(5) 0.3889(2) 0.2527(3)
O5 O 0.5372(5) 0.2514(2) 0.1995(3)
O6 O 0.2478(5) 0.2700(2) 0.1533(3)
N1 N 0.6665(5) 0.3516(2) 0.1115(3)
N2 N 0.4461(5) 0.2926(2) 0.0053(3)
C1 C 0.4199(8) 0.5018(3) 0.1154(5)
C2 C 0.2997(8) 0.4999(3) 0.0480(5)
H1 H 0.26270 0.53870 0.02510
C3 C 0.2305(7) 0.4459(3) 0.0121(5)
C4 C 0.4888(10) 0.5652(4) 0.1449(7)
H2 H 0.55460 0.55970 0.20100
H3 H 0.41620 0.59520 0.15500
H4 H 0.53920 0.58080 0.09730
C5 C 0.1125(9) 0.4496(4) -0.0693(5)
H5 H 0.05570 0.41160 -0.07210
H6 H 0.15330 0.45360 -0.12520
H7 H 0.05340 0.48580 -0.06260
C6 C 0.5465(9) 0.4055(4) 0.3626(5)
C7 C 0.4215(10) 0.4351(4) 0.3763(6)
H8 H 0.42580 0.46380 0.42510
C8 C 0.2906(10) 0.4252(5) 0.3228(7)
C9 C 0.6829(10) 0.4217(5) 0.4262(6)
H9 H 0.74600 0.38570 0.43120
H10 H 0.66080 0.43230 0.48630
H11 H 0.72830 0.45730 0.40170
C10 C 0.1583(11) 0.4588(7) 0.3475(9)
H12 H 0.10730 0.47870 0.29330
H13 H 0.18700 0.49060 0.39360
H14 H 0.09750 0.42830 0.37110
C11 C 0.5047(9) 0.1938(3) 0.1858(5)
C12 C 0.3657(10) 0.1710(4) 0.1664(6)
H15 H 0.35210 0.12720 0.16190
C13 C 0.2451(9) 0.2102(4) 0.1531(5)
C14 C 0.6290(12) 0.1476(4) 0.1947(8)
H16 H 0.68700 0.15300 0.25390
H17 H 0.68550 0.15580 0.14680
H18 H 0.59320 0.10490 0.18910
C15 C 0.0991(10) 0.1799(4) 0.1412(7)
H19 H 0.04050 0.20130 0.17960
H20 H 0.10810 0.13590 0.15860
H21 H 0.05570 0.18310 0.07770
C16 C 0.7740(7) 0.3820(3) 0.1603(5)
H22 H 0.75500 0.40980 0.20650
C17 C 0.9137(7) 0.3744(4) 0.1458(5)
H23 H 0.98720 0.39220 0.18720
C18 C 0.9442(7) 0.3423(4) 0.0745(6)
H24 H 1.03740 0.34140 0.06150
C19 C 0.8342(7) 0.3090(3) 0.0173(5)
C20 C 0.8543(10) 0.2715(5) -0.0612(6)
H25 H 0.94630 0.26650 -0.07520
C21 C 0.7465(11) 0.2435(4) -0.1148(6)
H26 H 0.76410 0.21950 -0.16520
C22 C 0.6039(9) 0.2501(3) -0.0955(5)
C23 C 0.4852(12) 0.2240(4) -0.1520(5)
H27 H 0.49760 0.20080 -0.20430
C24 C 0.3526(10) 0.2326(4) -0.1303(5)
H28 H 0.27290 0.21580 -0.16740
C25 C 0.3378(7) 0.2674(3) -0.0508(4)
H29 H 0.24620 0.27320 -0.03650
C26 C 0.5790(7) 0.2847(3) -0.0174(4)
C27 C 0.6953(6) 0.3158(3) 0.0393(4)
#END

data_CSD_CIF_SORGEN
_audit_creation_date 2014-11-03
_audit_creation_method CSD-ConQuest-V1
_database_code_CSD SORGEN
_database_code_depnum_ccdc_archive 'CCDC 997690'
_chemical_formula_sum 'C27 H19 Er1 F9 N3 O8'
_chemical_formula_moiety
;
C27 H19 Er1 F9 N3 O8
;
_journal_coden_Cambridge 222
_journal_volume 43
_journal_year 2014
_journal_page_first 18087
_journal_name_full 'Dalton Trans. '
loop_
_publ_author_name
"P.Martin-Ramos"
"C.Coya"
"V.Lavin"
"I.R.Martin"
"M.Ramos Silva"
"P.S.Pereira Silva"
"M.Garcia-Velez"
"A.L.Alvarez"
"J.Martin-Gil"
_chemical_name_systematic
;
tris(1,1,1-trifluoroacetylacetonato)-(5-nitro-1,10-phenanthroline)-erbium(iii)
;
_chemical_name_common
;
tris(1,1,1-trifluoro-4-oxopentan-2-olato)-(5-nitro-1,10-phenanthroline)-erbium
(iii)
;
_cell_volume   3181.880
_exptl_crystal_colour 'pink'
_exptl_crystal_density_diffrn 1.778
_exptl_crystal_description 'prism'
_diffrn_ambient_temperature 293
#These two values have been output from a single CSD field.
_refine_ls_R_factor_gt 0.067
_refine_ls_wR_factor_gt 0.067
_symmetry_cell_setting monoclinic
_symmetry_space_group_name_H-M 'P 21/c'
_symmetry_Int_Tables_number 14
loop_
_symmetry_equiv_pos_site_id
_symmetry_equiv_pos_as_xyz
1 x,y,z
2 -x,1/2+y,1/2-z
3 -x,-y,-z
4 x,-1/2-y,-1/2+z
_cell_length_a 9.7956(9)
_cell_length_b 14.8137(15)
_cell_length_c 24.0161(18)
_cell_angle_alpha 90
_cell_angle_beta 114.072(3)
_cell_angle_gamma 90
_cell_formula_units_Z 4
loop_
_atom_type_symbol
_atom_type_radius_bond
C 0.68
H 0.23
Er 1.89
F 0.64
N 0.68
O 0.68
loop_
_atom_site_label
_atom_site_type_symbol
_atom_site_fract_x
_atom_site_fract_y
_atom_site_fract_z
Er1 Er 0.81265(6) 0.31381(4) 0.35662(2)
F1 F 0.5855(17) 0.1569(11) 0.4754(6)
O1 O 0.9277(10) 0.1763(6) 0.3621(4)
O2 O 0.5687(9) 0.3339(5) 0.2873(3)
N1 N 0.8259(9) 0.4708(6) 0.3154(3)
O3 O 0.9757(9) 0.2962(6) 0.4557(3)
O4 O 0.6765(9) 0.2152(6) 0.3867(4)
N2 N 1.0688(10) 0.3633(7) 0.3642(4)
O5 O 0.810(1) 0.2952(5) 0.2606(4)
O6 O 0.7322(8) 0.4117(5) 0.4124(3)
C1 C 0.7101(12) 0.5242(8) 0.2918(5)
H1 H 0.62690 0.51020 0.29960
C2 C 0.7003(13) 0.5991(9) 0.2565(6)
H2 H 0.61230 0.63230 0.23940
C3 C 0.718(2) 0.3163(9) 0.2079(6)
C4 C 1.3445(13) 0.4112(10) 0.3568(5)
H3 H 1.43530 0.42490 0.35510
C5 C 0.8267(12) 0.6234(8) 0.2475(5)
H4 H 0.82540 0.67430 0.22470
C6 C 1.2139(13) 0.4658(9) 0.3300(5)
C7 C 1.1866(14) 0.3177(9) 0.3911(6)
H5 H 1.18270 0.27020 0.41570
O7 O 1.4548(12) 0.5891(9) 0.3424(6)
C8 C 0.8267(17) 0.0816(10) 0.4141(6)
H6 H 0.83670 0.02590 0.43330
C9 C 0.9538(13) 0.5716(8) 0.2725(5)
N3 N 1.3504(11) 0.5780(8) 0.2948(6)
C10 C 1.0896(11) 0.5947(8) 0.2676(5)
H7 H 1.09450 0.64390 0.24450
C11 C 0.6829(16) 0.4999(11) 0.4852(6)
H8 H 0.63320 0.53910 0.45100
H9 H 0.75000 0.53470 0.51910
H10 H 0.61000 0.47100 0.49640
C12 C 0.9512(11) 0.4959(7) 0.3080(5)
C13 C 1.2105(14) 0.5433(10) 0.2975(6)
C14 C 0.9739(15) 0.3223(10) 0.5053(6)
C15 C 0.3359(14) 0.3587(12) 0.2040(7)
H11 H 0.29030 0.31020 0.21680
H12 H 0.29820 0.35910 0.16030
H13 H 0.31270 0.41500 0.21790
C16 C 0.9270(15) 0.104(1) 0.3905(6)
C17 C 1.3204(15) 0.3333(11) 0.3866(7)
H14 H 1.39760 0.29180 0.40350
F2 F 0.772(2) 0.2447(10) 0.1337(6)
C18 C 1.0818(11) 0.4398(8) 0.3358(5)
F3 F 0.7266(16) 0.3772(9) 0.1177(5)
C19 C 0.7701(13) 0.4293(9) 0.4683(5)
O8 O 1.3494(11) 0.5959(9) 0.2470(6)
C20 C 0.584(3) 0.1012(13) 0.4298(10)
C21 C 0.8754(17) 0.3844(10) 0.5142(6)
H15 H 0.88400 0.39460 0.55370
C22 C 0.7104(16) 0.1377(10) 0.4109(6)
F4 F 0.4558(14) 0.1064(12) 0.3951(6)
F5 F 0.6217(16) 0.0220(9) 0.4580(7)
F6 F 0.9263(18) 0.3410(14) 0.1829(6)
C23 C 0.5024(15) 0.3456(9) 0.2307(5)
C24 C 1.061(2) 0.0413(11) 0.3977(8)
H16 H 1.02840 -0.00430 0.36660
H17 H 1.09840 0.01310 0.43710
H18 H 1.13910 0.07650 0.39390
C25 C 0.5779(17) 0.3432(9) 0.1918(6)
H19 H 0.52550 0.36200 0.15170
C26 C 0.783(3) 0.3166(15) 0.1592(7)
F7 F 1.059(3) 0.1955(13) 0.5638(8)
F8 F 1.108(2) 0.3105(10) 0.6118(5)
F9 F 1.2154(15) 0.2745(17) 0.5599(7)
C27 C 1.091(3) 0.2751(19) 0.5595(7)
#END

data_CSD_CIF_SORGIR
_audit_creation_date 2014-11-03
_audit_creation_method CSD-ConQuest-V1
_database_code_CSD SORGIR
_database_code_depnum_ccdc_archive 'CCDC 997691'
_chemical_formula_sum 'C25 H20 Er1 F9 N2 O6'
_chemical_formula_moiety
;
C25 H20 Er1 F9 N2 O6
;
_journal_coden_Cambridge 222
_journal_volume 43
_journal_year 2014
_journal_page_first 18087
_journal_name_full 'Dalton Trans. '
loop_
_publ_author_name
"P.Martin-Ramos"
"C.Coya"
"V.Lavin"
"I.R.Martin"
"M.Ramos Silva"
"P.S.Pereira Silva"
"M.Garcia-Velez"
"A.L.Alvarez"
"J.Martin-Gil"
_chemical_name_systematic
;
tris(1,1,1-trifluoroacetylacetonato)-(2,2'-bipyridine)-erbium(iii)
;
_chemical_name_common
;
tris(1,1,1-trifluoro-4-oxopentan-2-olato)-(2,2'-bipyridine)-erbium(iii)
;
_cell_volume   2888.156
_exptl_crystal_colour 'colorless'
_exptl_crystal_density_diffrn 1.8
_exptl_crystal_description 'block'
_diffrn_ambient_temperature 293
_refine_special_details
;
The structure is disordered.

;
#These two values have been output from a single CSD field.
_refine_ls_R_factor_gt 0.0725
_refine_ls_wR_factor_gt 0.0725
_symmetry_cell_setting monoclinic
_symmetry_space_group_name_H-M 'C 2/c'
_symmetry_Int_Tables_number 15
loop_
_symmetry_equiv_pos_site_id
_symmetry_equiv_pos_as_xyz
1 x,y,z
2 -x,y,1/2-z
3 1/2+x,1/2+y,z
4 1/2-x,1/2+y,1/2-z
5 -x,-y,-z
6 x,-y,-1/2+z
7 -1/2-x,-1/2-y,-z
8 -1/2+x,-1/2-y,-1/2+z
_cell_length_a 22.705(5)
_cell_length_b 9.2115(18)
_cell_length_c 15.646(3)
_cell_angle_alpha 90
_cell_angle_beta 118.042(3)
_cell_angle_gamma 90
_cell_formula_units_Z 4
loop_
_atom_type_symbol
_atom_type_radius_bond
C 0.68
H 0.23
Er 1.89
F 0.64
N 0.68
O 0.68
loop_
_atom_site_label
_atom_site_type_symbol
_atom_site_fract_x
_atom_site_fract_y
_atom_site_fract_z
Er1 Er 0.00000 0.06247(2) 0.25000
O1 O -0.10634(9) -0.0262(2) 0.20022(17)
O2 O -0.06476(9) 0.2556(3) 0.25150(13)
C1 C -0.22114(11) -0.0634(3) 0.11153(16)
C2 C -0.16265(11) 0.0349(2) 0.1649(2)
C3 C -0.17543(17) 0.1806(2) 0.1659(3)
H1 H -0.21960 0.21120 0.13470
C4 C -0.12647(11) 0.2840(2) 0.2105(2)
C5 C -0.1473(2) 0.4410(3) 0.2085(4)
H2 H -0.12470 0.48060 0.27270
H3 H -0.19460 0.44570 0.18500
H4 H -0.13570 0.49590 0.16640
F1 F -0.2154(3) -0.1089(9) 0.0394(3)
F2 F -0.2767(3) 0.0039(9) 0.0702(6)
F3 F -0.2164(3) -0.1671(6) 0.1663(4)
N1 N -0.02035(16) -0.1493(6) 0.1534(3)
N2 N -0.05501(17) 0.1175(6) 0.0837(3)
C6 C -0.07494(9) 0.0183(5) 0.0173(2)
C7 C -0.0717(2) 0.2510(9) 0.0520(4)
H5 H -0.05920 0.32510 0.09770
C8 C -0.1068(2) 0.2888(9) -0.0450(4)
H6 H -0.11680 0.38520 -0.06420
C9 C -0.1243(2) 0.1891(10) -0.1052(4)
H7 H -0.14840 0.21390 -0.17030
C10 C -0.1110(2) 0.0470(8) -0.0831(4)
H8 H -0.12440 -0.02550 -0.12990
C11 C -0.05814(10) -0.1338(5) 0.0545(2)
C12 C -0.07465(19) -0.2556(9) 0.0019(4)
H9 H -0.10010 -0.24970 -0.06510
C13 C -0.0529(4) -0.4011(11) 0.0486(6)
H10 H -0.06660 -0.48550 0.01180
C14 C -0.0199(3) -0.4065(9) 0.1288(5)
H11 H -0.00380 -0.49620 0.15760
C15 C -0.0016(3) -0.2787(9) 0.1885(4)
H12 H 0.02480 -0.28910 0.25500
F4? F -0.2556(5) -0.0085(11) 0.0238(4)
F5? F -0.2547(3) -0.0514(10) 0.1611(4)
F6? F -0.1990(3) -0.1957(6) 0.1190(5)
C16? C -0.0862(3) 0.1130(4) -0.0012(2)
C17? C -0.0896(3) -0.0429(4) -0.0192(5)
H13? H -0.11990 -0.07430 -0.08090
C18? C -0.0501(2) -0.1542(3) 0.0503(3)
C19? C -0.06509(17) -0.3084(3) 0.0162(2)
F7? F -0.1043(4) -0.3181(12) -0.0764(4)
F8? F -0.0996(2) -0.3685(9) 0.0528(4)
F9? F -0.0115(3) -0.3853(8) 0.0553(6)
O3? O -0.00869(14) -0.1288(4) 0.1356(2)
O4? O -0.04944(19) 0.1574(4) 0.0830(2)
C20? C -0.1206(4) 0.2116(5) -0.0873(3)
H14? H -0.15590 0.15960 -0.13940
H15? H -0.08900 0.24480 -0.10750
H16? H -0.13890 0.29350 -0.06990
N1A N 0.02035(16) -0.1493(6) 0.3466(3)
N2A N 0.05501(17) 0.1175(6) 0.4163(3)
C6A C 0.07494(9) 0.0183(5) 0.4827(2)
C7A C 0.0717(2) 0.2510(9) 0.4480(4)
H5A H 0.05920 0.32510 0.40230
C8A C 0.1068(2) 0.2888(9) 0.5450(4)
H6A H 0.11680 0.38520 0.56420
C9A C 0.1243(2) 0.1891(10) 0.6052(4)
H7A H 0.14840 0.21390 0.67030
C10A C 0.1110(2) 0.0470(8) 0.5831(4)
H8A H 0.12440 -0.02550 0.62990
C11A C 0.05814(10) -0.1338(5) 0.4455(2)
C12A C 0.07465(19) -0.2556(9) 0.4981(4)
H9A H 0.10010 -0.24970 0.56510
C13A C 0.0529(4) -0.4011(11) 0.4514(6)
H10A H 0.06660 -0.48550 0.48820
C14A C 0.0199(3) -0.4065(9) 0.3712(5)
H11A H 0.00380 -0.49620 0.34240
C15A C 0.0016(3) -0.2787(9) 0.3115(4)
H12A H -0.02480 -0.28910 0.24500
O1A O 0.10634(9) -0.0262(2) 0.29978(17)
O2A O 0.06476(9) 0.2556(3) 0.24850(13)
C1A C 0.22114(11) -0.0634(3) 0.38847(16)
C2A C 0.16265(11) 0.0349(2) 0.3351(2)
C3A C 0.17543(17) 0.1806(2) 0.3341(3)
H1A H 0.21960 0.21120 0.36530
C4A C 0.12647(11) 0.2840(2) 0.2895(2)
C5A C 0.1473(2) 0.4410(3) 0.2915(4)
H2A H 0.12470 0.48060 0.22730
H3A H 0.19460 0.44570 0.31500
H4A H 0.13570 0.49590 0.33360
F1A F 0.2154(3) -0.1089(9) 0.4606(3)
F2A F 0.2767(3) 0.0039(9) 0.4298(6)
F3A F 0.2164(3) -0.1671(6) 0.3337(4)
#END

data_CSD_CIF_SORGOX
_audit_creation_date 2014-11-03
_audit_creation_method CSD-ConQuest-V1
_database_code_CSD SORGOX
_database_code_depnum_ccdc_archive 'CCDC 997692'
_chemical_formula_sum 'C39 H28 Er1 F9 N2 O6'
_chemical_formula_moiety
;
C39 H28 Er1 F9 N2 O6
;
_journal_coden_Cambridge 222
_journal_volume 43
_journal_year 2014
_journal_page_first 18087
_journal_name_full 'Dalton Trans. '
loop_
_publ_author_name
"P.Martin-Ramos"
"C.Coya"
"V.Lavin"
"I.R.Martin"
"M.Ramos Silva"
"P.S.Pereira Silva"
"M.Garcia-Velez"
"A.L.Alvarez"
"J.Martin-Gil"
_chemical_name_systematic
;
tris(1,1,1-trifluoroacetylacetonato)-(4,7-diphenyl-1,10-phenanthroline)-erbium
(iii)
;
_chemical_name_common
;
tris(1,1,1-trifluoro-4-oxopentan-2-olato)-(4,7-diphenyl-1,10-phenanthroline)-e
rbium(iii)
;
_cell_volume   3844.342
_exptl_crystal_colour 'colorless'
_exptl_crystal_density_diffrn 1.657
_exptl_crystal_description 'prism'
_diffrn_ambient_temperature 293
#These two values have been output from a single CSD field.
_refine_ls_R_factor_gt 0.0377
_refine_ls_wR_factor_gt 0.0377
_symmetry_cell_setting monoclinic
_symmetry_space_group_name_H-M 'P 21/c'
_symmetry_Int_Tables_number 14
loop_
_symmetry_equiv_pos_site_id
_symmetry_equiv_pos_as_xyz
1 x,y,z
2 -x,1/2+y,1/2-z
3 -x,-y,-z
4 x,-1/2-y,-1/2+z
_cell_length_a 17.2382(4)
_cell_length_b 16.2042(3)
_cell_length_c 14.0954(3)
_cell_angle_alpha 90
_cell_angle_beta 102.474(1)
_cell_angle_gamma 90
_cell_formula_units_Z 4
loop_
_atom_type_symbol
_atom_type_radius_bond
C 0.68
H 0.23
Er 1.89
F 0.64
N 0.68
O 0.68
loop_
_atom_site_label
_atom_site_type_symbol
_atom_site_fract_x
_atom_site_fract_y
_atom_site_fract_z
Er1 Er 0.260636(14) -0.594816(15) 0.379047(18)
N1 N 0.1548(3) -0.6703(3) 0.4416(3)
N2 N 0.2984(2) -0.7353(3) 0.4524(3)
C1 C 0.0847(3) -0.6360(4) 0.4436(5)
H1 H 0.07580 -0.58170 0.42290
C2 C 0.0251(3) -0.6772(4) 0.4750(5)
H2 H -0.02210 -0.64970 0.47590
C3 C 0.0335(3) -0.7569(4) 0.5046(4)
C4 C 0.1064(3) -0.7965(3) 0.5011(4)
C5 C 0.1214(3) -0.8815(3) 0.5234(4)
H3 H 0.08170 -0.91370 0.53990
C6 C 0.1921(3) -0.9163(3) 0.5209(4)
H4 H 0.19990 -0.97200 0.53530
C7 C 0.2545(3) -0.8697(3) 0.4968(4)
C8 C 0.3307(3) -0.9031(4) 0.4944(4)
C9 C 0.3868(3) -0.8504(4) 0.4726(4)
H5 H 0.43670 -0.87040 0.46930
C10 C 0.3694(3) -0.7673(4) 0.4554(4)
H6 H 0.40970 -0.73240 0.44540
C11 C 0.2412(3) -0.7867(3) 0.4723(3)
C12 C 0.1653(3) -0.7500(3) 0.4712(4)
C13 C -0.0302(3) -0.7979(4) 0.5426(5)
C14 C -0.0177(4) -0.8254(4) 0.6374(5)
H7 H 0.03290 -0.82180 0.67700
C15 C -0.0787(5) -0.8579(5) 0.6741(6)
H8 H -0.06950 -0.87480 0.73860
C16 C -0.1511(5) -0.8653(5) 0.6173(8)
H9 H -0.19190 -0.88730 0.64300
C17 C -0.1664(4) -0.8414(5) 0.5221(7)
H10 H -0.21670 -0.84830 0.48260
C18 C -0.1049(4) -0.8064(4) 0.4857(5)
H11 H -0.11480 -0.78840 0.42150
C19 C 0.3508(3) -0.9916(3) 0.5113(4)
C20 C 0.3692(3) -1.0384(4) 0.4383(5)
H12 H 0.36750 -1.01480 0.37780
C21 C 0.3902(4) -1.1203(4) 0.4535(6)
H13 H 0.40100 -1.15160 0.40260
C22 C 0.3954(4) -1.1551(4) 0.5406(7)
H14 H 0.41040 -1.21010 0.55030
C23 C 0.3784(4) -1.1091(4) 0.6161(6)
H15 H 0.38250 -1.13310 0.67700
C24 C 0.3554(4) -1.0275(4) 0.6016(4)
H16 H 0.34310 -0.99690 0.65220
O1 O 0.3013(2) -0.4635(2) 0.3452(3)
O2 O 0.1499(2) -0.5303(2) 0.2916(3)
C25 C 0.3155(5) -0.3178(4) 0.3543(7)
H17 H 0.32050 -0.30300 0.42130
H18 H 0.29040 -0.27360 0.31370
H19 H 0.36730 -0.32780 0.34180
C26 C 0.2650(4) -0.3961(4) 0.3322(5)
C27 C 0.1825(4) -0.3887(4) 0.3000(5)
H20 H 0.16050 -0.33610 0.29150
C28 C 0.1334(4) -0.4544(4) 0.2808(5)
C29 C 0.0480(5) -0.4369(5) 0.2411(8)
F1 F 0.0218(3) -0.4706(4) 0.1564(5)
F2 F 0.0274(3) -0.3581(3) 0.2318(5)
F3 F 0.0028(3) -0.4686(4) 0.2982(5)
O3 O 0.3771(2) -0.5811(2) 0.4962(3)
O4 O 0.2299(2) -0.5172(3) 0.5020(3)
C30 C 0.4873(4) -0.5432(5) 0.6184(5)
H21 H 0.51260 -0.58450 0.58670
H22 H 0.49180 -0.55800 0.68530
H23 H 0.51260 -0.49080 0.61470
C31 C 0.4017(4) -0.5371(4) 0.5693(4)
C32 C 0.3518(4) -0.4839(4) 0.6073(5)
H24 H 0.37430 -0.45010 0.65930
C33 C 0.2718(4) -0.4794(4) 0.5718(5)
C34 C 0.2252(6) -0.4199(6) 0.6204(7)
F4 F 0.2635(4) -0.3821(6) 0.6949(6)
F5 F 0.1664(5) -0.4530(5) 0.6461(7)
F6 F 0.1921(6) -0.3639(5) 0.5664(6)
O5 O 0.2094(2) -0.6966(3) 0.2633(3)
O6 O 0.3558(2) -0.6230(2) 0.2935(3)
C35 C 0.1953(5) -0.8335(4) 0.2030(5)
H25 H 0.21010 -0.87230 0.25530
H26 H 0.20650 -0.85660 0.14470
H27 H 0.13950 -0.82180 0.19310
C36 C 0.2419(4) -0.7549(4) 0.2281(4)
C37 C 0.3219(4) -0.7499(4) 0.2152(4)
H28 H 0.34130 -0.79250 0.18250
C38 C 0.3707(4) -0.6856(4) 0.2485(4)
C39 C 0.4560(4) -0.6891(5) 0.2355(5)
F7 F 0.4771(2) -0.6201(3) 0.1973(3)
F8 F 0.5058(2) -0.6953(3) 0.3214(3)
F9 F 0.4724(3) -0.7498(3) 0.1799(4)
#END

data_CSD_CIF_UDEXOS
_audit_creation_date 2013-07-30
_audit_creation_method CSD-ConQuest-V1
_database_code_CSD UDEXOS
_database_code_depnum_ccdc_archive 'CCDC 933188'
_chemical_formula_sum 'C27 H19 F9 N3 O8 Yb1'
_chemical_formula_moiety
;
C27 H19 F9 N3 O8 Yb1
;
_journal_coden_Cambridge 222
_journal_volume 42
_journal_year 2013
_journal_page_first 13516
_journal_name_full 'Dalton Trans. '
loop_
_publ_author_name
"P.Martin-Ramos"
"P.S.P.da Silva"
"V.Lavin"
"I.R.Martin"
"F.Lahoz"
"P.Chamorro-Posada"
"M.R.Silva"
"J.Martin-Gil"
_chemical_name_systematic
;
tris(1,1,1-Trifluoro-2,4-pentanedionate)-(5-nitro-1,10-phenanthroline)-ytterbi
um(iii)
;
_cell_volume   3154.190
_exptl_crystal_colour 'yellow'
_exptl_crystal_density_diffrn 1.806
_exptl_crystal_description 'needle'
_diffrn_ambient_temperature 293
#These two values have been output from a single CSD field.
_refine_ls_R_factor_gt 0.0655
_refine_ls_wR_factor_gt 0.0655
_symmetry_cell_setting monoclinic
_symmetry_space_group_name_H-M 'P 21/c'
_symmetry_Int_Tables_number 14
loop_
_symmetry_equiv_pos_site_id
_symmetry_equiv_pos_as_xyz
1 x,y,z
2 -x,1/2+y,1/2-z
3 -x,-y,-z
4 x,-1/2-y,-1/2+z
_cell_length_a 9.7806(16)
_cell_length_b 14.750(2)
_cell_length_c 23.952(3)
_cell_angle_alpha 90
_cell_angle_beta 114.101(5)
_cell_angle_gamma 90
_cell_formula_units_Z 4
loop_
_atom_type_symbol
_atom_type_radius_bond
C 0.68
H 0.23
F 0.64
N 0.68
O 0.68
Yb 1.87
loop_
_atom_site_label
_atom_site_type_symbol
_atom_site_fract_x
_atom_site_fract_y
_atom_site_fract_z
Yb1 Yb 0.81305(6) 0.31215(3) 0.35733(2)
F1 F 0.5874(17) 0.1561(10) 0.4768(6)
O1 O 0.9284(11) 0.1765(6) 0.3624(4)
O2 O 0.5734(10) 0.3317(5) 0.2896(4)
N1 N 0.827(1) 0.4686(6) 0.3170(4)
O3 O 0.9725(10) 0.2961(6) 0.4561(4)
O4 O 0.6755(10) 0.2138(7) 0.3874(4)
N2 N 1.0689(11) 0.3620(7) 0.3653(4)
O5 O 0.8147(10) 0.2933(5) 0.2616(4)
O6 O 0.7330(9) 0.4101(5) 0.4119(3)
C1 C 0.7097(13) 0.5218(8) 0.2921(5)
H1 H 0.62550 0.50770 0.29920
C2 C 0.7009(13) 0.5982(8) 0.2557(6)
H2 H 0.61280 0.63140 0.23830
C3 C 0.720(2) 0.3180(9) 0.2100(7)
C4 C 1.3411(12) 0.4071(10) 0.3593(5)
H3 H 1.43220 0.42090 0.35770
C5 C 0.8240(13) 0.6221(9) 0.2466(6)
H4 H 0.82200 0.67320 0.22350
C6 C 1.2159(13) 0.4631(9) 0.3319(5)
C7 C 1.1864(15) 0.3112(9) 0.3922(6)
H5 H 1.17940 0.26070 0.41420
O7 O 1.4555(12) 0.5849(9) 0.3428(6)
C8 C 0.8315(19) 0.0808(10) 0.4131(6)
H6 H 0.84350 0.02470 0.43220
C9 C 0.9533(13) 0.5700(8) 0.2721(5)
N3 N 1.3495(14) 0.5749(9) 0.2943(7)
C10 C 1.0859(13) 0.5933(9) 0.2668(6)
H7 H 1.08920 0.64230 0.24290
C11 C 0.6785(18) 0.4987(11) 0.4816(7)
H8 H 0.65500 0.54710 0.45240
H9 H 0.73460 0.52210 0.52190
H10 H 0.58740 0.47180 0.47980
C12 C 0.9498(11) 0.4939(7) 0.3074(5)
C13 C 1.2079(14) 0.5433(9) 0.2969(6)
C14 C 0.9674(16) 0.3240(9) 0.5047(5)
C15 C 0.3412(16) 0.3551(12) 0.2064(8)
H11 H 0.29510 0.30850 0.22080
H12 H 0.30170 0.35320 0.16250
H13 H 0.32060 0.41330 0.21920
C16 C 0.9324(15) 0.1035(12) 0.3901(6)
C17 C 1.3235(15) 0.3306(9) 0.3889(7)
H14 H 1.40380 0.29110 0.40690
F2 F 0.777(2) 0.2418(10) 0.1364(7)
C18 C 1.0795(11) 0.4385(8) 0.3358(5)
F3 F 0.7274(17) 0.3775(10) 0.1186(5)
C19 C 0.7686(14) 0.4293(9) 0.4672(5)
O8 O 1.3515(11) 0.5946(9) 0.2468(6)
C20 C 0.595(2) 0.1017(13) 0.4357(9)
C21 C 0.8761(17) 0.3852(11) 0.5142(6)
H15 H 0.88750 0.39730 0.55400
C22 C 0.7127(18) 0.1332(10) 0.4107(6)
F4 F 0.4569(13) 0.1029(10) 0.3945(6)
F5 F 0.6256(15) 0.0214(9) 0.4612(7)
F6 F 0.9270(19) 0.3377(14) 0.1842(7)
C23 C 0.5041(16) 0.3404(9) 0.2318(6)
C24 C 1.0578(18) 0.0402(11) 0.3980(8)
H16 H 1.01840 -0.01940 0.38470
H17 H 1.12590 0.03820 0.44040
H18 H 1.10990 0.06100 0.37410
C25 C 0.5792(18) 0.3398(10) 0.1921(6)
H19 H 0.52540 0.35580 0.15140
C26 C 0.783(3) 0.3208(16) 0.1617(8)
F7 F 1.060(2) 0.1939(11) 0.5640(8)
F8 F 1.109(2) 0.3112(11) 0.6122(5)
F9 F 1.2129(16) 0.2761(17) 0.5604(7)
C27 C 1.087(3) 0.2774(15) 0.5594(7)
#END

data_CSD_CIF_VADBIO
_audit_creation_date 2016-03-07
_audit_creation_method CSD-ConQuest-V1
_database_code_CSD VADBIO
_database_code_depnum_ccdc_archive 'CCDC 1411749'
_chemical_formula_sum 'C59 H55 Fe3 Ho1 N2 O6'
_chemical_formula_moiety
;
C52 H47 Fe3 Ho1 N2 O6,C7 H8
;
_journal_coden_Cambridge 222
_journal_volume 45
_journal_year 2016
_journal_page_first 6405
_journal_name_full 'Dalton Trans. '
loop_
_publ_author_name
"P.S.Koroteev"
"Z.V.Dobrokhotova"
"A.B.Ilyukhin"
"N.N.Efimov"
"M.Rouzieres"
"M.A.Kiskin"
"R.Clerac"
"V.M.Novotortsev"
_chemical_name_systematic
;
(2,2'-Bipyridine)-tris(1-ferrocenylbutane-1,3-dionato-O,O')-holmium toluene 
solvate
;
_cell_volume   2499.868
_exptl_crystal_colour 'red'
_exptl_crystal_density_diffrn 1.621
_exptl_crystal_description 'needle'
_diffrn_ambient_temperature 150
_refine_special_details
;
C53,C54,C55,C56,C57,C58,C59 and 
C532,C533,C542,C543,C552,C553,C562,C563,C572,C573,C582,C583,C592,C593 
disordered over two sites with occupancies 
0.67:0.2,0.13,0.2,0.13,0.2,0.13,0.2,0.13,0.2,0.13,0.2,0.13,0.2,0.13.
;
#These two values have been output from a single CSD field.
_refine_ls_R_factor_gt 0.0296
_refine_ls_wR_factor_gt 0.0296
_symmetry_cell_setting triclinic
_symmetry_space_group_name_H-M 'P -1'
_symmetry_Int_Tables_number 2
loop_
_symmetry_equiv_pos_site_id
_symmetry_equiv_pos_as_xyz
1 x,y,z
2 -x,-y,-z
_cell_length_a 11.9923(2)
_cell_length_b 13.2018(3)
_cell_length_c 16.7204(3)
_cell_angle_alpha 80.582(1)
_cell_angle_beta 73.384(1)
_cell_angle_gamma 89.775(1)
_cell_formula_units_Z 2
loop_
_atom_type_symbol
_atom_type_radius_bond
C 0.68
H 0.23
Fe 1.52
Ho 1.92
N 0.68
O 0.68
loop_
_atom_site_label
_atom_site_type_symbol
_atom_site_fract_x
_atom_site_fract_y
_atom_site_fract_z
Ho1 Ho 0.30837(2) 0.19077(2) 0.37075(2)
Fe1 Fe 0.74202(4) 0.31735(4) 0.08880(3)
Fe2 Fe 0.12246(3) 0.38732(3) 0.67880(2)
Fe3 Fe 0.20089(4) 0.09582(4) 0.05748(3)
O1 O 0.24983(17) 0.33020(15) 0.29067(12)
O2 O 0.45920(17) 0.23096(16) 0.24862(12)
O3 O 0.46314(15) 0.21869(16) 0.42084(13)
O4 O 0.25155(15) 0.30969(15) 0.46016(12)
O5 O 0.39518(16) 0.03461(15) 0.35003(12)
O6 O 0.21769(16) 0.11938(15) 0.28689(11)
N1 N 0.09239(17) 0.16248(16) 0.45150(13)
N2 N 0.25412(18) 0.07116(17) 0.51430(14)
C1 C 0.2091(3) 0.4510(3) 0.1840(2)
H1 H 0.24460 0.47870 0.12390
H2 H 0.13250 0.41860 0.19160
H3 H 0.20010 0.50680 0.21710
C2 C 0.2865(3) 0.3716(2) 0.2139(2)
C3 C 0.3922(3) 0.3520(3) 0.1555(2)
H4 H 0.41040 0.38840 0.09910
C4 C 0.4712(2) 0.2818(2) 0.17640(19)
C5 C 0.5767(3) 0.2606(3) 0.10888(19)
C6 C 0.6502(3) 0.1797(3) 0.1195(2)
H5 H 0.64150 0.13090 0.16970
C7 C 0.7394(3) 0.1835(3) 0.0425(2)
H6 H 0.80060 0.13710 0.03190
C8 C 0.7226(3) 0.2674(4) -0.0160(2)
H7 H 0.77030 0.28720 -0.07270
C9 C 0.6221(3) 0.3174(3) 0.0241(2)
H8 H 0.59080 0.37690 -0.00010
C10 C 0.7495(4) 0.3828(4) 0.1885(3)
H9 H 0.69150 0.37440 0.24170
C11 C 0.7555(4) 0.4589(3) 0.1177(3)
H10 H 0.70260 0.51210 0.11440
C12 C 0.8548(4) 0.4415(4) 0.0525(3)
H11 H 0.87960 0.48120 -0.00280
C13 C 0.9102(4) 0.3576(4) 0.0818(3)
H12 H 0.97910 0.32990 0.05050
C14 C 0.8469(4) 0.3208(3) 0.1652(3)
H13 H 0.86570 0.26360 0.20080
C15 C 0.5996(3) 0.2569(3) 0.4892(2)
H14 H 0.60600 0.29830 0.53130
H15 H 0.60900 0.18440 0.50990
H16 H 0.66050 0.28000 0.43590
C16 C 0.4819(2) 0.2689(2) 0.47439(18)
C17 C 0.4041(2) 0.3324(2) 0.51926(19)
H17 H 0.42710 0.36520 0.55900
C18 C 0.2928(2) 0.3506(2) 0.50865(16)
C19 C 0.2173(2) 0.4234(2) 0.55576(16)
C20 C 0.0965(3) 0.4306(2) 0.56258(17)
H18 H 0.05400 0.39290 0.53630
C21 C 0.0505(3) 0.5039(2) 0.61555(19)
H19 H -0.02820 0.52330 0.63110
C22 C 0.1416(3) 0.5428(2) 0.64098(19)
H20 H 0.13500 0.59320 0.67640
C23 C 0.2453(3) 0.4939(2) 0.60475(18)
H21 H 0.31980 0.50580 0.61170
C24 C 0.0858(4) 0.3611(3) 0.8070(2)
H22 H 0.07800 0.41190 0.84220
C25 C -0.0034(3) 0.3186(3) 0.7833(2)
H23 H -0.08290 0.33550 0.79940
C26 C 0.0453(3) 0.2451(2) 0.7303(2)
H24 H 0.00400 0.20470 0.70510
C27 C 0.1651(3) 0.2433(3) 0.7224(2)
H25 H 0.21920 0.20120 0.69110
C28 C 0.1906(4) 0.3150(3) 0.7692(2)
H26 H 0.26530 0.33000 0.77450
C29 C 0.5047(3) -0.0936(3) 0.2820(2)
H27 H 0.50960 -0.12640 0.23270
H28 H 0.58000 -0.05960 0.27550
H29 H 0.48440 -0.14570 0.33340
C30 C 0.4121(2) -0.0149(2) 0.28888(18)
C31 C 0.3460(3) -0.0062(2) 0.23077(18)
H30 H 0.36810 -0.04420 0.18550
C32 C 0.2494(2) 0.0554(2) 0.23622(17)
C33 C 0.1704(3) 0.0444(3) 0.18306(17)
C34 C 0.0886(3) 0.1174(3) 0.16976(19)
H31 H 0.07740 0.18020 0.19110
C35 C 0.0266(3) 0.0818(3) 0.1199(2)
H32 H -0.03370 0.11650 0.10170
C36 C 0.0680(3) -0.0136(3) 0.1010(2)
H33 H 0.04050 -0.05440 0.06820
C37 C 0.1580(3) -0.0385(3) 0.1396(2)
H34 H 0.20170 -0.09860 0.13720
C38 C 0.2872(6) 0.2340(4) 0.0044(3)
H35 H 0.27920 0.29430 0.02930
C39 C 0.2233(5) 0.2068(4) -0.0465(3)
H36 H 0.16370 0.24540 -0.06230
C40 C 0.2617(4) 0.1119(4) -0.0710(2)
H37 H 0.23260 0.07630 -0.10650
C41 C 0.3506(3) 0.0790(4) -0.0338(2)
H38 H 0.39180 0.01760 -0.03860
C42 C 0.3656(4) 0.1574(4) 0.0128(2)
H39 H 0.42010 0.15720 0.04440
C43 C 0.0143(2) 0.2091(2) 0.41662(18)
H40 H 0.04100 0.24710 0.36080
C44 C -0.1035(2) 0.2044(3) 0.4580(2)
H41 H -0.15630 0.23940 0.43150
C45 C -0.1433(2) 0.1482(3) 0.5384(2)
H42 H -0.22410 0.14260 0.56790
C46 C -0.0634(2) 0.1001(2) 0.57562(19)
H43 H -0.08850 0.06110 0.63120
C47 C 0.1193(3) 0.0040(2) 0.64791(19)
H44 H 0.04190 -0.00140 0.68460
C48 C 0.2077(3) -0.0435(3) 0.6751(2)
H45 H 0.19180 -0.08130 0.73090
C49 C 0.3184(3) -0.0360(2) 0.6212(2)
H46 H 0.38000 -0.07050 0.63770
C50 C 0.3377(2) 0.0230(2) 0.54223(19)
H47 H 0.41490 0.03000 0.50530
C51 C 0.1443(2) 0.05997(19) 0.56647(16)
C52 C 0.0544(2) 0.10958(19) 0.53041(16)
C53 C 0.4173(4) 0.5745(4) 0.2856(4)
C54 C 0.3109(5) 0.5837(5) 0.3444(4)
H48 H 0.28900 0.53650 0.39620
C55 C 0.2364(6) 0.6593(5) 0.3296(4)
H49 H 0.16290 0.66260 0.36980
C56 C 0.2694(6) 0.7294(5) 0.2566(4)
H50 H 0.22010 0.78370 0.24710
C57 C 0.3735(7) 0.7218(5) 0.1967(4)
H51 H 0.39480 0.76930 0.14500
C58 C 0.4455(5) 0.6468(5) 0.2112(4)
H52 H 0.51760 0.64320 0.16960
C59 C 0.4958(5) 0.4902(4) 0.3011(4)
H53 H 0.56620 0.49640 0.25290
H54 H 0.51730 0.49530 0.35270
H55 H 0.45530 0.42360 0.30800
C60? C 0.3052(17) 0.6293(17) 0.3151(12)
C61? C 0.3224(19) 0.7020(17) 0.2425(13)
H56? H 0.26150 0.74740 0.23950
C62? C 0.4192(18) 0.7135(19) 0.1754(14)
H57? H 0.42600 0.76290 0.12590
C63? C 0.5042(18) 0.6513(15) 0.1833(13)
H58? H 0.57780 0.66180 0.14150
C64? C 0.4878(17) 0.5722(14) 0.2504(12)
H59? H 0.54490 0.52180 0.24890
C65? C 0.3938(19) 0.5637(19) 0.3182(13)
H60? H 0.38850 0.51360 0.36710
C66? C 0.1982(16) 0.6154(16) 0.3881(12)
H61? H 0.14280 0.66690 0.37760
H62? H 0.16300 0.54640 0.39540
H63? H 0.21840 0.62370 0.43960
C67? C 0.424(4) 0.628(3) 0.220(3)
C68? C 0.379(3) 0.550(3) 0.288(2)
H64? H 0.41410 0.48530 0.29010
C69? C 0.286(4) 0.564(3) 0.353(3)
H65? H 0.25220 0.50960 0.39780
C70? C 0.242(5) 0.658(4) 0.352(3)
H66? H 0.18850 0.67410 0.40140
C71? C 0.273(4) 0.730(4) 0.279(3)
H67? H 0.22430 0.78580 0.27230
C72? C 0.371(4) 0.721(3) 0.218(3)
H68? H 0.40380 0.77800 0.17530
C73? C 0.521(3) 0.611(3) 0.145(2)
H69? H 0.52580 0.53730 0.14470
H70? H 0.59440 0.63900 0.14920
H71? H 0.50540 0.64570 0.09330
#END

data_CSD_CIF_VADBUA
_audit_creation_date 2016-03-07
_audit_creation_method CSD-ConQuest-V1
_database_code_CSD VADBUA
_database_code_depnum_ccdc_archive 'CCDC 1411752'
_chemical_formula_sum 'C59 H55 Fe3 Gd1 N2 O6'
_chemical_formula_moiety
;
C52 H47 Fe3 Gd1 N2 O6,C7 H8
;
_journal_coden_Cambridge 222
_journal_volume 45
_journal_year 2016
_journal_page_first 6405
_journal_name_full 'Dalton Trans. '
loop_
_publ_author_name
"P.S.Koroteev"
"Z.V.Dobrokhotova"
"A.B.Ilyukhin"
"N.N.Efimov"
"M.Rouzieres"
"M.A.Kiskin"
"R.Clerac"
"V.M.Novotortsev"
_chemical_name_systematic
;
(2,2'-Bipyridine)-tris(1-ferrocenylbutane-1,3-dionato-O,O')-gadolinium 
toluene solvate
;
_cell_volume   2515.621
_exptl_crystal_colour 'black'
_exptl_crystal_density_diffrn 1.601
_exptl_crystal_description 'block'
_diffrn_ambient_temperature 173
_refine_special_details
;
The toluene solvent molecule is disordered.

;
#These two values have been output from a single CSD field.
_refine_ls_R_factor_gt 0.0581
_refine_ls_wR_factor_gt 0.0581
_symmetry_cell_setting triclinic
_symmetry_space_group_name_H-M 'P -1'
_symmetry_Int_Tables_number 2
loop_
_symmetry_equiv_pos_site_id
_symmetry_equiv_pos_as_xyz
1 x,y,z
2 -x,-y,-z
_cell_length_a 11.980(4)
_cell_length_b 13.268(4)
_cell_length_c 16.704(5)
_cell_angle_alpha 80.851(5)
_cell_angle_beta 73.847(5)
_cell_angle_gamma 89.751(6)
_cell_formula_units_Z 2
loop_
_atom_type_symbol
_atom_type_radius_bond
C 0.68
H 0.23
Fe 1.52
Gd 1.96
N 0.68
O 0.68
loop_
_atom_site_label
_atom_site_type_symbol
_atom_site_fract_x
_atom_site_fract_y
_atom_site_fract_z
Gd1 Gd 0.30854(3) 0.19288(3) 0.36906(2)
Fe1 Fe 0.73937(9) 0.31930(9) 0.08811(7)
Fe2 Fe 0.12270(9) 0.38718(8) 0.67903(6)
Fe3 Fe 0.1940(1) 0.08934(9) 0.05897(7)
O1 O 0.2461(4) 0.3301(4) 0.2867(3)
O2 O 0.4590(4) 0.2354(4) 0.2460(3)
O3 O 0.4633(4) 0.2207(4) 0.4223(3)
O4 O 0.2524(4) 0.3136(4) 0.4601(3)
O5 O 0.3984(4) 0.0356(4) 0.3471(3)
O6 O 0.2154(4) 0.1177(4) 0.2858(3)
N1 N 0.0904(4) 0.1631(4) 0.4528(3)
N2 N 0.2537(5) 0.0708(4) 0.5129(4)
C1 C 0.2034(8) 0.4477(7) 0.1787(5)
H1 H 0.23960 0.47410 0.11880
H2 H 0.12760 0.41470 0.18550
H3 H 0.19280 0.50430 0.21100
C2 C 0.2792(7) 0.3723(7) 0.2102(5)
C3 C 0.3880(7) 0.3527(6) 0.1528(5)
H4 H 0.40610 0.38860 0.09650
C4 C 0.4680(6) 0.2861(6) 0.1730(5)
C5 C 0.5743(6) 0.2652(7) 0.1057(5)
C6 C 0.6469(7) 0.1872(7) 0.1135(6)
H5 H 0.63850 0.13750 0.16270
C7 C 0.7335(8) 0.1914(8) 0.0398(6)
H6 H 0.79400 0.14470 0.02890
C8 C 0.7181(7) 0.2761(8) -0.0171(6)
H7 H 0.76600 0.29690 -0.07310
C9 C 0.6194(7) 0.3247(8) 0.0234(5)
H8 H 0.58850 0.38520 0.00070
C10 C 0.7477(10) 0.3857(11) 0.1871(8)
H9 H 0.68780 0.38070 0.23880
C11 C 0.7615(11) 0.4578(9) 0.1166(11)
H10 H 0.71280 0.51380 0.11140
C12 C 0.8590(12) 0.4364(11) 0.0529(9)
H11 H 0.88660 0.47310 -0.00300
C13 C 0.9047(10) 0.3548(13) 0.0865(12)
H12 H 0.97310 0.32420 0.05820
C14 C 0.8396(13) 0.3210(9) 0.1675(10)
H13 H 0.85440 0.26330 0.20410
C15 C 0.5972(7) 0.2585(7) 0.4938(6)
H14 H 0.60140 0.30050 0.53620
H15 H 0.60610 0.18670 0.51540
H16 H 0.65960 0.28080 0.44180
C16 C 0.4831(6) 0.2699(6) 0.4758(5)
C17 C 0.4041(6) 0.3342(6) 0.5210(5)
H17 H 0.42600 0.36610 0.56170
C18 C 0.2943(6) 0.3528(5) 0.5080(5)
C19 C 0.2182(6) 0.4262(6) 0.5565(4)
C20 C 0.0987(6) 0.4334(6) 0.5628(5)
H18 H 0.05630 0.39650 0.53560
C21 C 0.0527(8) 0.5049(6) 0.6166(5)
H19 H -0.02570 0.52490 0.63120
C22 C 0.1422(7) 0.5412(6) 0.6445(5)
H20 H 0.13530 0.59010 0.68120
C23 C 0.2460(7) 0.4917(6) 0.6082(5)
H21 H 0.32000 0.50090 0.61700
C24 C 0.0853(10) 0.3596(8) 0.8068(6)
H22 H 0.07770 0.41000 0.84230
C25 C -0.0032(8) 0.3162(7) 0.7801(5)
H23 H -0.08290 0.33230 0.79560
C26 C 0.0456(8) 0.2453(6) 0.7268(5)
H24 H 0.00530 0.20600 0.69990
C27 C 0.1626(8) 0.2436(6) 0.7209(6)
H25 H 0.21700 0.20250 0.68890
C28 C 0.1883(9) 0.3109(8) 0.7688(6)
H26 H 0.26310 0.32300 0.77540
C29 C 0.5095(7) -0.0892(6) 0.2775(6)
H27 H 0.51400 -0.12210 0.22820
H28 H 0.58410 -0.05370 0.27030
H29 H 0.49220 -0.14110 0.32850
C30 C 0.4136(7) -0.0125(6) 0.2859(5)
C31 C 0.3440(7) -0.0084(6) 0.2297(5)
H30 H 0.36440 -0.04800 0.18550
C32 C 0.2465(6) 0.0513(6) 0.2362(4)
C33 C 0.1660(6) 0.0359(7) 0.1834(4)
C34 C 0.0808(7) 0.1096(7) 0.1720(5)
H31 H 0.06840 0.17200 0.19360
C35 C 0.0198(8) 0.0700(8) 0.1225(5)
H32 H -0.04290 0.10150 0.10520
C36 C 0.0652(7) -0.0219(7) 0.1026(5)
H33 H 0.03970 -0.06300 0.06890
C37 C 0.1545(7) -0.0442(6) 0.1405(5)
H34 H 0.19970 -0.10330 0.13760
C38 C 0.2716(12) 0.2256(10) 0.0066(7)
H35 H 0.25780 0.28430 0.03330
C39 C 0.2097(12) 0.195(1) -0.0450(7)
H36 H 0.14770 0.22930 -0.06130
C40 C 0.2564(9) 0.1039(10) -0.0682(6)
H37 H 0.23080 0.06640 -0.10420
C41 C 0.3454(9) 0.0752(9) -0.0317(6)
H38 H 0.38860 0.01510 -0.03540
C42 C 0.3571(10) 0.1561(9) 0.0125(6)
H39 H 0.41420 0.16170 0.04150
C43 C 0.0132(6) 0.2142(6) 0.4174(5)
H40 H 0.03970 0.25500 0.36310
C44 C -0.1059(7) 0.2069(7) 0.4607(5)
H41 H -0.16000 0.24280 0.43600
C45 C -0.1429(6) 0.1483(6) 0.5379(5)
H42 H -0.22350 0.14130 0.56690
C46 C -0.0642(6) 0.0994(6) 0.5741(5)
H43 H -0.08880 0.05880 0.62870
C47 C 0.1196(6) 0.0046(6) 0.6449(5)
H44 H 0.04250 -0.00030 0.68130
C48 C 0.2087(7) -0.0434(6) 0.6727(5)
H45 H 0.19370 -0.07990 0.72850
C49 C 0.3173(7) -0.0370(6) 0.6187(5)
H46 H 0.37880 -0.07300 0.63420
C50 C 0.3355(6) 0.0226(6) 0.5417(5)
H47 H 0.41290 0.03030 0.50570
C51 C 0.1435(6) 0.0586(5) 0.5652(5)
C52 C 0.0524(5) 0.1103(5) 0.5294(4)
C53 C 0.4177(15) 0.5742(17) 0.287(2)
C54 C 0.3156(16) 0.5857(18) 0.3418(14)
H48 H 0.29280 0.54020 0.39410
C55 C 0.243(2) 0.6608(19) 0.3255(16)
H49 H 0.16790 0.66320 0.36420
C56 C 0.382(2) 0.7203(19) 0.1948(14)
H50 H 0.40600 0.76680 0.14310
C57 C 0.4479(17) 0.6464(18) 0.2104(18)
H51 H 0.51930 0.63990 0.16920
C58 C 0.4955(14) 0.4910(13) 0.2984(14)
H52 H 0.56490 0.49890 0.24970
H53 H 0.51850 0.49330 0.35000
H54 H 0.45500 0.42540 0.30320
C59 C 0.267(5) 0.726(4) 0.281(3)
H55 H 0.22730 0.78830 0.27950
C60? C 0.310(4) 0.624(4) 0.305(2)
C61? C 0.227(5) 0.646(4) 0.350(3)
C62? C 0.213(3) 0.615(3) 0.383(2)
C63? C 0.283(3) 0.558(3) 0.348(2)
C64? C 0.400(4) 0.554(5) 0.305(4)
C65? C 0.502(3) 0.576(3) 0.252(2)
H56? H 0.16220 0.65360 0.39630
C66? C 0.422(3) 0.626(3) 0.221(3)
C67? C 0.378(3) 0.546(2) 0.282(2)
H57? H 0.38620 0.49100 0.34340
H58? H 0.41210 0.48110 0.28040
H59? H 0.56750 0.53890 0.25940
C68? C 0.525(2) 0.621(2) 0.1505(18)
H60? H 0.59890 0.64830 0.15420
H61? H 0.50990 0.65510 0.09840
H62? H 0.53030 0.54670 0.14980
C69? C 0.516(3) 0.656(3) 0.183(3)
C70? C 0.357(5) 0.715(4) 0.219(3)
C71? C 0.323(4) 0.697(4) 0.238(3)
C72? C 0.275(3) 0.732(2) 0.2549(13)
H63? H 0.25890 0.73800 0.23280
H64? H 0.22820 0.78750 0.24570
C73? C 0.426(4) 0.714(4) 0.176(3)
H65? H 0.43450 0.76600 0.12810
H66? H 0.37990 0.76830 0.17150
H67? H 0.25650 0.50280 0.39280
H68? H 0.22250 0.55580 0.42290
H69? H 0.21100 0.67710 0.40760
H70? H 0.13960 0.60610 0.36850
H71? H 0.58940 0.66930 0.14130
#END

data_CSD_CIF_VADHIU
_audit_creation_date 2016-03-07
_audit_creation_method CSD-ConQuest-V1
_database_code_CSD VADHIU
_database_code_depnum_ccdc_archive 'CCDC 1451934'
_chemical_formula_sum 'C59 H55 Fe3 N2 O6 Pr1'
_chemical_formula_moiety
;
C52 H47 Fe3 N2 O6 Pr1,C7 H8
;
_journal_coden_Cambridge 222
_journal_volume 45
_journal_year 2016
_journal_page_first 6405
_journal_name_full 'Dalton Trans. '
loop_
_publ_author_name
"P.S.Koroteev"
"Z.V.Dobrokhotova"
"A.B.Ilyukhin"
"N.N.Efimov"
"M.Rouzieres"
"M.A.Kiskin"
"R.Clerac"
"V.M.Novotortsev"
_chemical_name_systematic
;
(2,2'-Bipyridine)-tris(1-ferrocenylbutane-1,3-dionato-O,O')-praseodymium 
toluene solvate
;
_cell_volume   2621.093
_exptl_special_details
;
powder data

;
_diffrn_ambient_temperature 296
_refine_special_details
;
The structure is disordered.

;
#These two values have been output from a single CSD field.
_refine_ls_R_factor_gt 0.026
_refine_ls_wR_factor_gt 0.026
_symmetry_cell_setting triclinic
_symmetry_space_group_name_H-M 'P -1'
_symmetry_Int_Tables_number 2
loop_
_symmetry_equiv_pos_site_id
_symmetry_equiv_pos_as_xyz
1 x,y,z
2 -x,-y,-z
_cell_length_a 12.06139(44)
_cell_length_b 13.67584(54)
_cell_length_c 16.68548(62)
_cell_angle_alpha 81.0395(26)
_cell_angle_beta 74.6467(30)
_cell_angle_gamma 88.7621(32)
_cell_formula_units_Z 2
loop_
_atom_type_symbol
_atom_type_radius_bond
C 0.68
H 0.23
Fe 1.52
N 0.68
O 0.68
Pr 2.03
loop_
_atom_site_label
_atom_site_type_symbol
_atom_site_fract_x
_atom_site_fract_y
_atom_site_fract_z
Pr1 Pr 0.30493 0.19309 0.36848
Fe1 Fe 0.73655 0.31831 0.09104
Fe2 Fe 0.12059 0.38853 0.67974
Fe3 Fe 0.19043 0.08539 0.05917
O1 O 0.23980 0.33040 0.28660
O2 O 0.45480 0.23340 0.24450
O3 O 0.46170 0.22270 0.41920
O4 O 0.24930 0.31280 0.45940
O5 O 0.39930 0.03840 0.34530
O6 O 0.21400 0.11580 0.28560
N1 N 0.08870 0.16510 0.45120
N2 N 0.25240 0.07370 0.51250
C1 C 0.19830 0.44690 0.17880
H1 H 0.12720 0.45070 0.22460
H2 H 0.17820 0.42590 0.13020
H3 H 0.23830 0.51410 0.16150
C2 C 0.27780 0.36920 0.20980
C3 C 0.38250 0.35340 0.15210
H4 H 0.39930 0.39000 0.09610
C4 C 0.46510 0.28520 0.17310
C5 C 0.57290 0.26710 0.10550
C6 C 0.64600 0.18470 0.11420
H5 H 0.63650 0.13380 0.16270
C7 C 0.73580 0.19170 0.03810
H6 H 0.79770 0.14590 0.02670
C8 C 0.71920 0.27670 -0.01820
H7 H 0.76710 0.29780 -0.07420
C9 C 0.62000 0.32520 0.02230
H8 H 0.58930 0.38560 -0.00080
C10 C 0.74300 0.38160 0.19230
H9 H 0.68360 0.37390 0.24450
C11 C 0.75370 0.46100 0.12020
H10 H 0.70560 0.51770 0.11510
C12 C 0.86240 0.43150 0.05330
H11 H 0.89380 0.46610 -0.00290
C13 C 0.90510 0.34460 0.09160
H12 H 0.97200 0.31030 0.06500
C14 C 0.83970 0.31650 0.16970
H13 H 0.85480 0.25960 0.20700
C15 C 0.59690 0.26140 0.48900
H14 H 0.64220 0.21530 0.45240
H15 H 0.58780 0.23270 0.54860
H16 H 0.63760 0.32820 0.47610
C16 C 0.48020 0.27330 0.47380
C17 C 0.40260 0.33560 0.51930
H17 H 0.42600 0.36820 0.55950
C18 C 0.29090 0.35360 0.50930
C19 C 0.21470 0.42570 0.55740
C20 C 0.09400 0.43420 0.56340
H18 H 0.05150 0.39810 0.53550
C21 C 0.04860 0.50580 0.61820
H19 H -0.03010 0.52510 0.63420
C22 C 0.13890 0.54330 0.64470
H20 H 0.13230 0.59360 0.68070
C23 C 0.24090 0.49450 0.60920
H21 H 0.31480 0.50510 0.61800
C24 C 0.08350 0.35980 0.80690
H22 H 0.07570 0.41030 0.84290
C25 C -0.00550 0.31900 0.78290
H23 H -0.08520 0.33530 0.79920
C26 C 0.04600 0.24670 0.72810
H24 H 0.00550 0.20720 0.70120
C27 C 0.16420 0.24380 0.72070
H25 H 0.21850 0.20210 0.68870
C28 C 0.18810 0.31430 0.76960
H26 H 0.26230 0.32890 0.77630
C29 C 0.50710 -0.09290 0.28080
H27 H 0.54840 -0.08640 0.32330
H28 H 0.56200 -0.08060 0.22410
H29 H 0.47220 -0.16200 0.29140
C30 C 0.41210 -0.01510 0.28650
C31 C 0.34190 -0.01120 0.23110
H30 H 0.36150 -0.05240 0.18750
C32 C 0.24410 0.04970 0.23590
C33 C 0.16370 0.03480 0.18500
C34 C 0.07880 0.10650 0.17220
H31 H 0.06570 0.16890 0.19420
C35 C 0.01710 0.06870 0.12100
H32 H -0.04470 0.10140 0.10300
C36 C 0.06270 -0.02530 0.10130
H33 H 0.03710 -0.06690 0.06770
C37 C 0.15360 -0.04740 0.14020
H34 H 0.19950 -0.10630 0.13720
C38 C 0.26970 0.22450 0.00640
H35 H 0.25690 0.28530 0.03090
C39 C 0.21010 0.19230 -0.04550
H36 H 0.14920 0.22770 -0.06280
C40 C 0.25340 0.09850 -0.06920
H37 H 0.22770 0.06010 -0.10510
C41 C 0.34270 0.07260 -0.02910
H38 H 0.38780 0.01320 -0.03250
C42 C 0.35150 0.15280 0.01690
H39 H 0.40490 0.15660 0.04950
C43 C 0.00920 0.21170 0.41740
H40 H 0.03460 0.24950 0.36180
C44 C -0.10740 0.20800 0.45870
H41 H -0.16090 0.24400 0.43300
C45 C -0.14470 0.15110 0.53770
H42 H -0.22510 0.14600 0.56700
C46 C -0.06500 0.10060 0.57510
H43 H -0.08940 0.06080 0.62990
C47 C 0.12140 0.00490 0.64480
H44 H 0.04420 -0.00200 0.68100
C48 C 0.20980 -0.04100 0.67230
H45 H 0.19480 -0.07810 0.72810
C49 C 0.32030 -0.03320 0.61880
H46 H 0.38260 -0.06690 0.63540
C50 C 0.33800 0.02550 0.53980
H47 H 0.41460 0.03220 0.50260
C51 C 0.14420 0.06140 0.56400
C52 C 0.05290 0.11070 0.52890
C53 C 0.41300 0.57130 0.29270
C54 C 0.30040 0.57830 0.34280
H48 H 0.26960 0.52480 0.38850
C55 C 0.23190 0.65770 0.32970
H49 H 0.15780 0.66350 0.36810
H50 H 0.22850 0.78590 0.25540
H51 H 0.39080 0.76500 0.15010
C56 C 0.43780 0.64040 0.21550
H52 H 0.50570 0.63120 0.17180
C57 C 0.48950 0.48940 0.30330
H53 H 0.45630 0.44560 0.35780
H54 H 0.56540 0.51750 0.30210
H55 H 0.49880 0.44910 0.25710
C58 C 0.27300 0.71200 0.28500
C59 C 0.37400 0.71400 0.22200
C60? C 0.76300 0.30700 0.20800
H56? H 0.72270 0.25190 0.24980
C61? C 0.72400 0.41000 0.19200
H57? H 0.66640 0.44570 0.22780
C62? C 0.80100 0.44900 0.10000
H58? H 0.78990 0.50680 0.06220
C63? C 0.89100 0.38000 0.08400
H59? H 0.95490 0.38560 0.03390
C64? C 0.87500 0.30600 0.14800
H60? H 0.93090 0.25610 0.15420
C65? C 0.31200 0.62400 0.31000
C66? C 0.32300 0.69600 0.23800
H61? H 0.25800 0.73510 0.23210
C67? C 0.42300 0.71200 0.17500
H62? H 0.43200 0.76640 0.12990
C68? C 0.50700 0.65000 0.17900
H63? H 0.58020 0.66620 0.13780
C69? C 0.49800 0.56500 0.23600
H64? H 0.55770 0.51640 0.23100
C70? C 0.40100 0.55300 0.30100
H65? H 0.39210 0.49350 0.34300
C71? C 0.20700 0.60900 0.37700
H66? H 0.21300 0.54920 0.41850
H67? H 0.14180 0.59800 0.35420
H68? H 0.19400 0.66960 0.40550
C72? C 0.38900 0.54100 0.27000
H69? H 0.39720 0.47150 0.26260
C73? C 0.41900 0.62000 0.19900
C74? C 0.52700 0.61500 0.13500
H70? H 0.54190 0.54360 0.12980
H71? H 0.59080 0.64540 0.15110
H72? H 0.52070 0.65280 0.08130
C75? C 0.34700 0.56800 0.34800
H73? H 0.37210 0.53810 0.39550
C76? C 0.26900 0.63800 0.35200
H74? H 0.20830 0.63780 0.40250
C77? C 0.27200 0.72600 0.26180
H75? H 0.21260 0.75770 0.28170
C78? C 0.37000 0.71780 0.20140
H76? H 0.41300 0.77650 0.19460
#END

data_CSD_CIF_VAJJAU
_audit_creation_date 2016-03-08
_audit_creation_method CSD-ConQuest-V1
_database_code_CSD VAJJAU
_database_code_depnum_ccdc_archive 'CCDC 1411746'
_chemical_formula_sum 'C59 H55 Eu1 Fe3 N2 O6'
_chemical_formula_moiety
;
C52 H47 Eu1 Fe3 N2 O6,C7 H8
;
_journal_coden_Cambridge 222
_journal_volume 45
_journal_year 2016
_journal_page_first 6405
_journal_name_full 'Dalton Trans. '
loop_
_publ_author_name
"P.S.Koroteev"
"Z.V.Dobrokhotova"
"A.B.Ilyukhin"
"N.N.Efimov"
"M.Rouzieres"
"M.A.Kiskin"
"R.Clerac"
"V.M.Novotortsev"
_chemical_name_systematic
;
tris(1-(ferrocenyl)butane-1,3-dionato)-(2,2'-bipyridine)-europium toluene 
solvate
;
_cell_volume   2599.395
_exptl_crystal_colour 'red'
_exptl_crystal_density_diffrn 1.543
_exptl_crystal_description 'block'
_diffrn_ambient_temperature 296
_refine_special_details
;
C53,C54,C55,C56,C57,C58,C59 and C532,C542,C552,C562,C572,C582,C592 disordered 
over two sites with occupancies 0.6:0.4.
;
#These two values have been output from a single CSD field.
_refine_ls_R_factor_gt 0.0512
_refine_ls_wR_factor_gt 0.0512
_symmetry_cell_setting triclinic
_symmetry_space_group_name_H-M 'P -1'
_symmetry_Int_Tables_number 2
loop_
_symmetry_equiv_pos_site_id
_symmetry_equiv_pos_as_xyz
1 x,y,z
2 -x,-y,-z
_cell_length_a 12.0489(14)
_cell_length_b 13.6801(15)
_cell_length_c 16.5898(18)
_cell_angle_alpha 81.03(2)
_cell_angle_beta 74.29(2)
_cell_angle_gamma 88.90(2)
_cell_formula_units_Z 2
loop_
_atom_type_symbol
_atom_type_radius_bond
C 0.68
H 0.23
Eu 1.98
Fe 1.52
N 0.68
O 0.68
loop_
_atom_site_label
_atom_site_type_symbol
_atom_site_fract_x
_atom_site_fract_y
_atom_site_fract_z
Eu1 Eu 0.30775(3) 0.19185(2) 0.36603(2)
Fe1 Fe 0.73318(14) 0.32021(8) 0.09605(8)
Fe2 Fe 0.12383(11) 0.38226(6) 0.67909(5)
Fe3 Fe 0.18948(12) 0.07755(7) 0.06282(5)
O1 O 0.2407(5) 0.3247(3) 0.2840(2)
O2 O 0.4545(5) 0.2333(3) 0.2408(3)
O3 O 0.4630(5) 0.2199(3) 0.4191(3)
O4 O 0.2522(4) 0.3092(3) 0.4587(2)
O5 O 0.4036(5) 0.0399(3) 0.3433(2)
O6 O 0.2147(5) 0.1127(3) 0.2857(2)
N1 N 0.0909(5) 0.1666(3) 0.4487(3)
N2 N 0.2531(6) 0.0716(4) 0.5111(3)
C1 C 0.1928(8) 0.4420(6) 0.1790(5)
H1 H 0.22680 0.46860 0.12060
H2 H 0.11980 0.41080 0.18490
H3 H 0.18170 0.49450 0.21240
C2 C 0.2720(9) 0.3663(5) 0.2094(5)
C3 C 0.3828(10) 0.3538(6) 0.1517(5)
H4 H 0.40040 0.39260 0.09840
C4 C 0.4653(9) 0.2879(6) 0.1700(4)
C5 C 0.5723(8) 0.2740(6) 0.1032(4)
C6 C 0.6457(9) 0.1929(6) 0.1087(5)
H5 H 0.63510 0.14150 0.15400
C7 C 0.7351(10) 0.2026(8) 0.0361(6)
H6 H 0.79470 0.15830 0.02450
C8 C 0.7231(10) 0.2887(9) -0.0176(5)
H7 H 0.77220 0.31150 -0.07080
C9 C 0.6209(10) 0.3356(7) 0.0242(5)
H8 H 0.59190 0.39500 0.00370
C10 C 0.7249(17) 0.3924(14) 0.1949(11)
H9 H 0.65910 0.40400 0.23660
C11 C 0.7691(19) 0.4525(11) 0.1209(15)
H10 H 0.73720 0.51190 0.10370
C12 C 0.8702(18) 0.4133(15) 0.0733(14)
H11 H 0.91560 0.43880 0.01940
C13 C 0.8854(17) 0.3306(15) 0.1238(16)
H12 H 0.94960 0.29120 0.11090
C14 C 0.794(2) 0.3095(13) 0.1985(12)
H13 H 0.78330 0.25380 0.24020
C15 C 0.6011(8) 0.2614(6) 0.4848(5)
H14 H 0.60800 0.30150 0.52590
H15 H 0.61430 0.19350 0.50450
H16 H 0.65700 0.28350 0.43190
C16 C 0.4826(8) 0.2702(5) 0.4726(5)
C17 C 0.4050(9) 0.3314(5) 0.5167(5)
H17 H 0.42810 0.36340 0.55510
C18 C 0.2937(8) 0.3489(4) 0.5077(4)
C19 C 0.2153(8) 0.4180(4) 0.5573(4)
C20 C 0.0992(8) 0.4278(4) 0.5619(4)
H18 H 0.05790 0.39480 0.53400
C21 C 0.0546(9) 0.4978(5) 0.6172(4)
H19 H -0.02150 0.51760 0.63270
C22 C 0.1462(10) 0.5313(5) 0.6439(4)
H20 H 0.14060 0.57850 0.67940
C23 C 0.2475(8) 0.4830(4) 0.6090(4)
H21 H 0.32000 0.49090 0.61730
C24 C 0.0894(16) 0.3539(8) 0.8065(5)
H22 H 0.08250 0.40160 0.84180
C25 C 0.0002(11) 0.3156(6) 0.7805(5)
H23 H -0.07710 0.33220 0.79630
C26 C 0.0493(12) 0.2465(6) 0.7257(6)
H24 H 0.01050 0.21090 0.69790
C27 C 0.1638(12) 0.2422(7) 0.7216(6)
H25 H 0.21590 0.20140 0.69110
C28 C 0.1908(13) 0.3077(9) 0.7697(7)
H26 H 0.26350 0.31880 0.77640
C29 C 0.5070(8) -0.0911(5) 0.2831(5)
H27 H 0.50710 -0.12780 0.23820
H28 H 0.58090 -0.05910 0.27210
H29 H 0.49140 -0.13550 0.33600
C30 C 0.4156(8) -0.0147(5) 0.2878(4)
C31 C 0.3390(8) -0.0154(5) 0.2360(4)
H30 H 0.35440 -0.05920 0.19690
C32 C 0.2407(8) 0.0450(5) 0.2384(4)
C33 C 0.1614(8) 0.0286(5) 0.1882(4)
C34 C 0.0808(9) 0.0960(6) 0.1747(4)
H31 H 0.06860 0.15580 0.19540
C35 C 0.0182(9) 0.0590(6) 0.1234(4)
H32 H -0.04290 0.08950 0.10590
C36 C 0.0647(9) -0.0293(6) 0.1048(4)
H33 H 0.04100 -0.06910 0.07160
C37 C 0.1533(8) -0.0500(5) 0.1436(4)
H34 H 0.19900 -0.10560 0.14080
C38 C 0.2670(17) 0.2099(9) 0.0108(8)
H35 H 0.25410 0.26790 0.03430
C39 C 0.2086(13) 0.1774(13) -0.0429(8)
H36 H 0.14920 0.21050 -0.06070
C40 C 0.2531(14) 0.0880(11) -0.0654(5)
H37 H 0.22990 0.05080 -0.10070
C41 C 0.3397(11) 0.0651(9) -0.0243(7)
H38 H 0.38480 0.00920 -0.02760
C42 C 0.3473(12) 0.1397(11) 0.0223(6)
H39 H 0.39790 0.14180 0.05560
C43 C 0.0116(8) 0.2167(5) 0.4171(5)
H40 H 0.03630 0.25660 0.36450
C44 C -0.1027(8) 0.2126(6) 0.4575(5)
H41 H -0.15440 0.24900 0.43290
C45 C -0.1405(8) 0.1544(6) 0.5343(5)
H42 H -0.21860 0.14920 0.56260
C46 C -0.0623(8) 0.1042(5) 0.5690(5)
H43 H -0.08690 0.06460 0.62170
C47 C 0.1193(8) 0.0044(5) 0.6395(4)
H44 H 0.04380 -0.00320 0.67360
C48 C 0.2098(9) -0.0408(5) 0.6672(5)
H45 H 0.19530 -0.07610 0.72180
C49 C 0.3176(9) -0.0341(5) 0.6161(4)
H46 H 0.37750 -0.06810 0.63250
C50 C 0.3355(8) 0.0241(5) 0.5397(4)
H47 H 0.41060 0.03130 0.50480
C51 C 0.1449(8) 0.0613(4) 0.5596(4)
C52 C 0.0542(7) 0.1116(4) 0.5264(4)
C53 C 0.4067(12) 0.5536(7) 0.2824(7)
H48 H 0.45340 0.49860 0.28170
C54 C 0.3138(13) 0.5598(9) 0.3524(7)
H49 H 0.29830 0.50890 0.39850
C55 C 0.2440(11) 0.6419(10) 0.3536(7)
H50 H 0.18190 0.64610 0.40050
C56 C 0.2672(12) 0.7180(9) 0.2848(9)
H51 H 0.22060 0.77300 0.28560
C57 C 0.3602(12) 0.7119(7) 0.2148(7)
H52 H 0.37570 0.76270 0.16870
C58 C 0.4299(10) 0.6297(7) 0.2136(6)
C59 C 0.5155(15) 0.6256(10) 0.1475(10)
H53 H 0.55570 0.56510 0.15560
H54 H 0.48710 0.62770 0.09850
H55 H 0.56740 0.68090 0.13920
C60? C 0.3069(16) 0.6208(11) 0.3139(9)
C61? C 0.3165(19) 0.6989(12) 0.2477(11)
H56? H 0.25360 0.73860 0.24540
C62? C 0.420(2) 0.7175(13) 0.1849(10)
H57? H 0.42640 0.76970 0.14060
C63? C 0.5140(17) 0.6580(15) 0.1884(11)
H58? H 0.58330 0.67050 0.14640
C64? C 0.5044(16) 0.5799(15) 0.2546(12)
H59? H 0.56730 0.54010 0.25690
C65? C 0.4008(18) 0.5613(12) 0.3174(10)
H60? H 0.39440 0.50910 0.36170
C66? C 0.212(2) 0.6029(15) 0.3723(14)
H61? H 0.22030 0.54690 0.41270
H62? H 0.19200 0.65960 0.40040
H63? H 0.15160 0.58890 0.34750
#END

data_CSD_CIF_VAJJEY
_audit_creation_date 2016-03-08
_audit_creation_method CSD-ConQuest-V1
_database_code_CSD VAJJEY
_database_code_depnum_ccdc_archive 'CCDC 1411747'
_chemical_formula_sum 'C59 H55 Fe3 N2 O6 Tb1'
_chemical_formula_moiety
;
C52 H47 Fe3 N2 O6 Tb1,C7 H8
;
_journal_coden_Cambridge 222
_journal_volume 45
_journal_year 2016
_journal_page_first 6405
_journal_name_full 'Dalton Trans. '
loop_
_publ_author_name
"P.S.Koroteev"
"Z.V.Dobrokhotova"
"A.B.Ilyukhin"
"N.N.Efimov"
"M.Rouzieres"
"M.A.Kiskin"
"R.Clerac"
"V.M.Novotortsev"
_chemical_name_systematic
;
tris(1-(ferrocenyl)butane-1,3-dionato)-(2,2'-bipyridine)-terbium toluene 
solvate
;
_cell_volume   2501.854
_exptl_crystal_colour 'brown'
_exptl_crystal_density_diffrn 1.612
_exptl_crystal_description 'block'
_diffrn_ambient_temperature 150
_refine_special_details
;
The structure is disordered.

;
#These two values have been output from a single CSD field.
_refine_ls_R_factor_gt 0.0512
_refine_ls_wR_factor_gt 0.0512
_symmetry_cell_setting triclinic
_symmetry_space_group_name_H-M 'P -1'
_symmetry_Int_Tables_number 2
loop_
_symmetry_equiv_pos_site_id
_symmetry_equiv_pos_as_xyz
1 x,y,z
2 -x,-y,-z
_cell_length_a 11.9757(7)
_cell_length_b 13.2552(8)
_cell_length_c 16.5953(10)
_cell_angle_alpha 81.265(2)
_cell_angle_beta 74.033(2)
_cell_angle_gamma 89.479(2)
_cell_formula_units_Z 2
loop_
_atom_type_symbol
_atom_type_radius_bond
C 0.68
H 0.23
Fe 1.52
N 0.68
O 0.68
Tb 1.94
loop_
_atom_site_label
_atom_site_type_symbol
_atom_site_fract_x
_atom_site_fract_y
_atom_site_fract_z
Tb1 Tb 0.30493(2) 0.19309(2) 0.36849(2)
Fe1 Fe 0.73656(9) 0.31835(8) 0.09098(7)
Fe2 Fe 0.12059(8) 0.38852(6) 0.67974(5)
Fe3 Fe 0.19047(8) 0.08541(8) 0.05917(5)
O1 O 0.2400(4) 0.3304(3) 0.2865(3)
O2 O 0.4549(4) 0.2333(4) 0.2445(3)
O3 O 0.4618(3) 0.2228(3) 0.4192(3)
O4 O 0.2494(3) 0.3128(3) 0.4594(2)
O5 O 0.3993(3) 0.0385(3) 0.3454(2)
O6 O 0.2140(3) 0.1158(3) 0.2855(2)
N1 N 0.0887(3) 0.1652(3) 0.4512(3)
N2 N 0.2525(4) 0.0735(4) 0.5126(3)
C1 C 0.1982(7) 0.4465(6) 0.1788(5)
H1 H 0.23340 0.47340 0.11870
H2 H 0.12280 0.41330 0.18550
H3 H 0.18740 0.50280 0.21200
C2 C 0.2777(6) 0.3693(6) 0.2099(4)
C3 C 0.3826(6) 0.3535(6) 0.1521(5)
H4 H 0.39960 0.39030 0.09610
C4 C 0.4649(6) 0.2851(6) 0.1732(4)
C5 C 0.5728(5) 0.2673(6) 0.1054(4)
C6 C 0.6459(6) 0.1845(6) 0.1142(5)
H5 H 0.63620 0.13340 0.16260
C7 C 0.7358(7) 0.1916(7) 0.0382(5)
H6 H 0.79790 0.14610 0.02690
C8 C 0.7192(7) 0.2765(8) -0.0185(5)
H7 H 0.76670 0.29730 -0.07470
C9 C 0.6202(7) 0.3252(7) 0.0224(5)
H8 H 0.58970 0.38580 -0.00060
C10 C 0.7438(17) 0.3816(14) 0.1917(11)
H9 H 0.68490 0.37430 0.24410
C11 C 0.7535(11) 0.4608(10) 0.1200(11)
H10 H 0.70500 0.51710 0.11500
C12 C 0.8626(12) 0.4315(12) 0.0531(9)
H11 H 0.89440 0.46660 -0.00290
C13 C 0.9050(12) 0.3440(12) 0.0910(12)
H12 H 0.97150 0.30940 0.06430
C14 C 0.8393(13) 0.3162(12) 0.1693(10)
H13 H 0.85380 0.25910 0.20670
C15 C 0.5971(5) 0.2612(6) 0.4890(5)
H14 H 0.60340 0.30250 0.53180
H15 H 0.60750 0.18920 0.50910
H16 H 0.65730 0.28400 0.43590
C16 C 0.4800(5) 0.2731(5) 0.4738(4)
C17 C 0.4026(5) 0.3356(5) 0.5192(4)
H17 H 0.42600 0.36830 0.55940
C18 C 0.2909(5) 0.3535(4) 0.5092(3)
C19 C 0.2147(5) 0.4257(4) 0.5573(3)
C20 C 0.0942(5) 0.4343(4) 0.5632(3)
H18 H 0.05170 0.39830 0.53530
C21 C 0.0489(6) 0.5061(5) 0.6182(4)
H19 H -0.02980 0.52560 0.63420
C22 C 0.1390(6) 0.5432(5) 0.6445(4)
H20 H 0.13240 0.59340 0.68060
C23 C 0.2411(6) 0.4945(4) 0.6091(4)
H21 H 0.31500 0.50520 0.61780
C24 C 0.0837(10) 0.3600(7) 0.8069(5)
H22 H 0.07590 0.41060 0.84270
C25 C -0.0055(8) 0.3190(6) 0.7828(4)
H23 H -0.08510 0.33530 0.79920
C26 C 0.0459(7) 0.2467(5) 0.7281(4)
H24 H 0.00530 0.20720 0.70130
C27 C 0.1640(7) 0.2438(5) 0.7206(5)
H25 H 0.21830 0.20210 0.68860
C28 C 0.1882(9) 0.3143(7) 0.7695(5)
H26 H 0.26240 0.32880 0.77620
C29 C 0.5075(6) -0.0926(5) 0.2806(5)
H27 H 0.51010 -0.12980 0.23340
H28 H 0.58250 -0.05690 0.27070
H29 H 0.49140 -0.14080 0.33370
C30 C 0.4120(5) -0.0152(5) 0.2866(4)
C31 C 0.3419(5) -0.0112(5) 0.2312(4)
H30 H 0.36170 -0.05230 0.18750
C32 C 0.2441(5) 0.0497(5) 0.2360(3)
C33 C 0.1637(5) 0.0351(5) 0.1850(3)
C34 C 0.0791(5) 0.1064(5) 0.1719(4)
H31 H 0.06630 0.16910 0.19360
C35 C 0.0170(6) 0.0683(6) 0.1212(4)
H32 H -0.04540 0.10060 0.10360
C36 C 0.0629(6) -0.0249(6) 0.1012(4)
H33 H 0.03750 -0.06630 0.06720
C37 C 0.1537(6) -0.0475(5) 0.1402(4)
H34 H 0.19940 -0.10640 0.13720
C38 C 0.2694(10) 0.2247(8) 0.0067(6)
H35 H 0.25660 0.28550 0.03130
C39 C 0.2094(9) 0.1919(9) -0.0454(5)
H36 H 0.14810 0.22690 -0.06250
C40 C 0.2533(7) 0.0984(8) -0.0692(4)
H37 H 0.22790 0.05990 -0.10510
C41 C 0.3427(7) 0.0729(7) -0.0293(5)
H38 H 0.38780 0.01350 -0.03260
C42 C 0.3518(8) 0.1527(7) 0.0165(5)
H39 H 0.40550 0.15660 0.04880
C43 C 0.0090(5) 0.2118(5) 0.4175(4)
H40 H 0.03440 0.24970 0.36190
C44 C -0.1074(5) 0.2079(5) 0.4587(4)
H41 H -0.16090 0.24390 0.43300
C45 C -0.1448(5) 0.1509(5) 0.5377(4)
H42 H -0.22520 0.14570 0.56700
C46 C -0.0652(4) 0.1006(5) 0.5750(4)
H43 H -0.08950 0.06070 0.62990
C47 C 0.1213(5) 0.0047(5) 0.6446(4)
H44 H 0.04400 -0.00240 0.68060
C48 C 0.2101(6) -0.0412(5) 0.6722(4)
H45 H 0.19500 -0.07810 0.72800
C49 C 0.3205(5) -0.0334(5) 0.6188(4)
H46 H 0.38280 -0.06720 0.63540
C50 C 0.3380(5) 0.0256(5) 0.5396(4)
H47 H 0.41450 0.03260 0.50250
C51 C 0.1442(4) 0.0615(4) 0.5641(3)
C52 C 0.0529(4) 0.1106(4) 0.5288(3)
C53? C 0.761(4) 0.306(4) 0.210(3)
H48? H 0.72120 0.24960 0.25000
C54? C 0.720(5) 0.408(4) 0.195(4)
H49? H 0.66060 0.44220 0.23020
C55? C 0.800(6) 0.448(4) 0.103(4)
H50? H 0.78910 0.50710 0.06600
C56? C 0.890(5) 0.379(5) 0.087(4)
H51? H 0.95240 0.38440 0.03670
C57? C 0.876(5) 0.308(4) 0.153(4)
H52? H 0.93400 0.26180 0.16220
C58 C 0.413(2) 0.5711(17) 0.2931(15)
C59 C 0.3005(12) 0.5788(13) 0.3424(11)
H53 H 0.26940 0.52530 0.38800
C60 C 0.2318(12) 0.6580(11) 0.3296(10)
H54 H 0.15760 0.66400 0.36780
C61 C 0.273(2) 0.726(2) 0.2617(14)
H55 H 0.23000 0.78570 0.25550
C62 C 0.371(2) 0.7184(16) 0.2006(14)
H56 H 0.39120 0.76570 0.14940
C63 C 0.4383(13) 0.6405(13) 0.2155(10)
H57 H 0.50630 0.63110 0.17200
C64 C 0.4897(17) 0.4891(15) 0.3027(14)
H58 H 0.56420 0.50350 0.25930
H59 H 0.50240 0.48240 0.35910
H60 H 0.45460 0.42530 0.29630
C65? C 0.312(3) 0.624(3) 0.310(2)
C66? C 0.323(3) 0.694(3) 0.236(2)
H61? H 0.25710 0.72920 0.22760
C67? C 0.425(3) 0.712(3) 0.176(2)
H62? H 0.43630 0.76970 0.13180
C68? C 0.507(3) 0.649(3) 0.180(2)
H63? H 0.58120 0.66530 0.14030
C69? C 0.497(3) 0.561(3) 0.235(2)
H64? H 0.55270 0.51010 0.22690
C70? C 0.401(4) 0.552(4) 0.301(3)
H65? H 0.39260 0.49460 0.34480
C71? C 0.208(3) 0.610(3) 0.377(2)
H66? H 0.21780 0.55790 0.42290
H67? H 0.18950 0.67510 0.39930
H68? H 0.14350 0.58940 0.35680
C72? C 0.420(4) 0.620(3) 0.199(3)
C73? C 0.387(4) 0.542(3) 0.269(2)
H69? H 0.39300 0.47210 0.26250
C74? C 0.348(5) 0.569(4) 0.348(2)
H70? H 0.37410 0.53990 0.39490
C75? C 0.270(4) 0.639(4) 0.350(3)
H71? H 0.20930 0.63840 0.40130
C76? C 0.273(5) 0.713(5) 0.284(3)
H72? H 0.21210 0.75910 0.28160
C77? C 0.374(6) 0.714(3) 0.222(3)
H73? H 0.41310 0.77700 0.19370
C78? C 0.528(3) 0.616(3) 0.135(2)
H74? H 0.54310 0.54420 0.12980
H75? H 0.59200 0.64600 0.15110
H76? H 0.52180 0.65340 0.08120
#END

data_CSD_CIF_VAJJIC
_audit_creation_date 2016-03-08
_audit_creation_method CSD-ConQuest-V1
_database_code_CSD VAJJIC
_database_code_depnum_ccdc_archive 'CCDC 1411748'
_chemical_formula_sum 'C59 H55 Dy1 Fe3 N2 O6'
_chemical_formula_moiety
;
C52 H47 Dy1 Fe3 N2 O6,C7 H8
;
_journal_coden_Cambridge 222
_journal_volume 45
_journal_year 2016
_journal_page_first 6405
_journal_name_full 'Dalton Trans. '
loop_
_publ_author_name
"P.S.Koroteev"
"Z.V.Dobrokhotova"
"A.B.Ilyukhin"
"N.N.Efimov"
"M.Rouzieres"
"M.A.Kiskin"
"R.Clerac"
"V.M.Novotortsev"
_chemical_name_systematic
;
tris(1-(ferrocenyl)butane-1,3-dionato)-(2,2'-bipyridine)-dysprosium toluene 
solvate
;
_cell_volume   2504.262
_exptl_crystal_colour 'brown'
_exptl_crystal_density_diffrn 1.615
_exptl_crystal_description 'block'
_diffrn_ambient_temperature 150
_refine_special_details
;
C53,C54,C55,C56,C57,C58,C59 and C532,C542,C552,C562,C572,C582,C592 and 
C533,C543,C553,C563,C573,C583,C593 disordered over three sites with 
occupancies 0.61:0.21:0.18.
;
#These two values have been output from a single CSD field.
_refine_ls_R_factor_gt 0.0405
_refine_ls_wR_factor_gt 0.0405
_symmetry_cell_setting triclinic
_symmetry_space_group_name_H-M 'P -1'
_symmetry_Int_Tables_number 2
loop_
_symmetry_equiv_pos_site_id
_symmetry_equiv_pos_as_xyz
1 x,y,z
2 -x,-y,-z
_cell_length_a 11.9852(3)
_cell_length_b 13.2486(3)
_cell_length_c 16.6607(4)
_cell_angle_alpha 80.885(1)
_cell_angle_beta 73.652(1)
_cell_angle_gamma 89.734(1)
_cell_formula_units_Z 2
loop_
_atom_type_symbol
_atom_type_radius_bond
C 0.68
H 0.23
Dy 1.92
Fe 1.52
N 0.68
O 0.68
loop_
_atom_site_label
_atom_site_type_symbol
_atom_site_fract_x
_atom_site_fract_y
_atom_site_fract_z
Dy1 Dy 0.30796(2) 0.19157(2) 0.36971(2)
Fe1 Fe 0.74047(6) 0.31762(5) 0.08919(5)
Fe2 Fe 0.12218(5) 0.38783(5) 0.67878(4)
Fe3 Fe 0.19635(6) 0.09177(6) 0.05818(4)
O1 O 0.2469(3) 0.3305(2) 0.28905(19)
O2 O 0.4581(3) 0.2324(2) 0.24693(19)
O3 O 0.4629(2) 0.2200(2) 0.42050(19)
O4 O 0.2523(2) 0.3114(2) 0.45906(18)
O5 O 0.3972(2) 0.0357(2) 0.34800(18)
O6 O 0.2176(2) 0.1176(2) 0.28636(17)
N1 N 0.0919(3) 0.1638(2) 0.4512(2)
N2 N 0.2535(3) 0.0715(3) 0.5134(2)
C1 C 0.2049(5) 0.4493(4) 0.1815(3)
H1 H 0.24050 0.47660 0.12140
H2 H 0.12890 0.41640 0.18860
H3 H 0.19470 0.50530 0.21450
C2 C 0.2833(5) 0.3712(4) 0.2124(3)
C3 C 0.3896(4) 0.3525(4) 0.1537(3)
H4 H 0.40750 0.38860 0.09730
C4 C 0.4696(4) 0.2829(4) 0.1750(3)
C5 C 0.5750(4) 0.2640(4) 0.1069(3)
C6 C 0.6482(4) 0.1815(4) 0.1166(3)
H5 H 0.63870 0.13130 0.16570
C7 C 0.7376(5) 0.1875(5) 0.0399(4)
H6 H 0.79890 0.14140 0.02890
C8 C 0.7220(5) 0.2719(5) -0.0175(3)
H7 H 0.77050 0.29300 -0.07360
C9 C 0.6210(5) 0.3199(5) 0.0231(3)
H8 H 0.58910 0.37890 -0.00110
C10 C 0.7463(6) 0.3826(6) 0.1903(4)
H9 H 0.68650 0.37560 0.24250
C11 C 0.7579(6) 0.4573(5) 0.1185(5)
H10 H 0.70730 0.51190 0.11380
C12 C 0.8568(7) 0.4382(6) 0.0546(5)
H11 H 0.88380 0.47660 -0.00100
C13 C 0.9071(6) 0.3542(6) 0.0869(6)
H12 H 0.97580 0.32500 0.05700
C14 C 0.8438(7) 0.3188(5) 0.1684(5)
H13 H 0.86120 0.26170 0.20450
C15 C 0.5994(4) 0.2578(4) 0.4900(3)
H14 H 0.60530 0.29930 0.53250
H15 H 0.60870 0.18570 0.51070
H16 H 0.66050 0.28050 0.43700
C16 C 0.4819(4) 0.2698(3) 0.4743(3)
C17 C 0.4040(4) 0.3341(3) 0.5189(3)
H17 H 0.42750 0.36740 0.55830
C18 C 0.2927(4) 0.3522(3) 0.5086(3)
C19 C 0.2177(4) 0.4244(3) 0.5559(2)
C20 C 0.0972(4) 0.4320(3) 0.5620(3)
H18 H 0.05500 0.39480 0.53500
C21 C 0.0509(4) 0.5045(4) 0.6155(3)
H19 H -0.02770 0.52410 0.63060
C22 C 0.1412(4) 0.5424(3) 0.6421(3)
H20 H 0.13420 0.59250 0.67800
C23 C 0.2447(4) 0.4935(3) 0.6066(3)
H21 H 0.31860 0.50450 0.61480
C24 C 0.0861(6) 0.3607(4) 0.8067(3)
H22 H 0.07830 0.41110 0.84240
C25 C -0.0035(5) 0.3188(4) 0.7821(3)
H23 H -0.08290 0.33590 0.79820
C26 C 0.0448(4) 0.2460(4) 0.7290(3)
H24 H 0.00360 0.20620 0.70310
C27 C 0.1639(5) 0.2437(4) 0.7217(3)
H25 H 0.21770 0.20140 0.69030
C28 C 0.1906(5) 0.3146(5) 0.7688(3)
H26 H 0.26540 0.32910 0.77430
C29 C 0.5062(4) -0.0925(4) 0.2805(3)
H27 H 0.51010 -0.12620 0.23160
H28 H 0.58150 -0.05830 0.27310
H29 H 0.48730 -0.14380 0.33230
C30 C 0.4130(4) -0.0145(3) 0.2877(3)
C31 C 0.3452(4) -0.0079(4) 0.2309(3)
H30 H 0.36600 -0.04730 0.18640
C32 C 0.2481(4) 0.0536(3) 0.2362(3)
C33 C 0.1679(4) 0.0407(4) 0.1837(3)
C34 C 0.0848(4) 0.1126(4) 0.1712(3)
H31 H 0.07300 0.17510 0.19300
C35 C 0.0224(5) 0.0763(5) 0.1213(3)
H32 H -0.03880 0.11000 0.10360
C36 C 0.0657(4) -0.0184(4) 0.1019(3)
H33 H 0.03900 -0.05950 0.06870
C37 C 0.1556(4) -0.0416(4) 0.1402(3)
H34 H 0.20000 -0.10120 0.13760
C38 C 0.2797(8) 0.2300(5) 0.0049(4)
H35 H 0.26950 0.29050 0.02960
C39 C 0.2170(7) 0.1995(6) -0.0468(4)
H36 H 0.15700 0.23640 -0.06370
C40 C 0.2571(5) 0.1049(6) -0.0700(3)
H37 H 0.22900 0.06690 -0.10470
C41 C 0.3469(5) 0.0773(5) -0.0320(3)
H38 H 0.39040 0.01730 -0.03630
C42 C 0.3596(6) 0.1559(5) 0.0136(3)
H39 H 0.41410 0.15760 0.04520
C43 C 0.0131(4) 0.2105(3) 0.4166(3)
H40 H 0.03900 0.24860 0.36090
C44 C -0.1040(4) 0.2053(4) 0.4586(3)
H41 H -0.15730 0.24050 0.43260
C45 C -0.1429(4) 0.1492(4) 0.5380(3)
H42 H -0.22350 0.14390 0.56750
C46 C -0.0634(4) 0.1003(3) 0.5745(3)
H43 H -0.08810 0.06050 0.62960
C47 C 0.1199(4) 0.0042(3) 0.6464(3)
H44 H 0.04240 -0.00200 0.68260
C48 C 0.2079(4) -0.0426(4) 0.6740(3)
H45 H 0.19230 -0.07970 0.73000
C49 C 0.3189(4) -0.0351(4) 0.6200(3)
H46 H 0.38070 -0.06970 0.63630
C50 C 0.3376(4) 0.0241(3) 0.5413(3)
H47 H 0.41480 0.03180 0.50470
C51 C 0.1445(3) 0.0605(3) 0.5655(3)
C52 C 0.0542(3) 0.1102(3) 0.5292(3)
C53 C 0.4160(9) 0.5714(10) 0.2879(6)
C54 C 0.3136(9) 0.5837(8) 0.3440(7)
H48 H 0.28990 0.53660 0.39560
C55 C 0.2431(11) 0.6603(9) 0.3301(12)
H49 H 0.17300 0.66700 0.37290
C56 C 0.2703(10) 0.7285(9) 0.2559(8)
H50 H 0.21910 0.78060 0.24530
C57 C 0.3739(14) 0.7187(10) 0.1977(7)
H51 H 0.39490 0.76490 0.14560
C58 C 0.4458(8) 0.6467(7) 0.2120(7)
H52 H 0.51900 0.64470 0.17130
C59 C 0.4955(8) 0.4902(7) 0.3014(7)
H53 H 0.56430 0.49660 0.25200
H54 H 0.51950 0.49630 0.35200
H55 H 0.45580 0.42330 0.30910
C60? C 0.310(2) 0.626(3) 0.3118(17)
C61? C 0.323(3) 0.697(3) 0.243(2)
H56? H 0.25890 0.73920 0.24010
C62? C 0.421(3) 0.714(3) 0.176(2)
H57? H 0.42590 0.76810 0.13050
C63? C 0.511(2) 0.652(2) 0.1770(18)
H58? H 0.58290 0.66330 0.13400
C64? C 0.493(2) 0.572(2) 0.2417(16)
H59? H 0.54440 0.51770 0.23470
C65? C 0.408(3) 0.564(3) 0.3144(19)
H60? H 0.41300 0.52110 0.36450
C66? C 0.206(2) 0.614(2) 0.3851(16)
H61? H 0.21470 0.55750 0.42810
H62? H 0.19500 0.67740 0.40920
H63? H 0.13740 0.59930 0.36680
C67? C 0.420(3) 0.620(3) 0.216(2)
C68? C 0.377(3) 0.546(2) 0.284(2)
H64? H 0.41340 0.48270 0.28600
C69? C 0.283(3) 0.560(3) 0.348(2)
H65? H 0.26070 0.50970 0.39780
C70? C 0.220(4) 0.646(4) 0.342(4)
H66? H 0.14200 0.64830 0.37570
C71? C 0.278(3) 0.727(3) 0.286(2)
H67? H 0.25190 0.79320 0.29370
C72? C 0.368(5) 0.718(3) 0.220(3)
H68? H 0.39670 0.77480 0.17580
C73? C 0.519(2) 0.607(2) 0.1442(17)
H69? H 0.51580 0.53670 0.13220
H70? H 0.59180 0.61880 0.15750
H71? H 0.51510 0.65550 0.09440
#END

data_CSD_CIF_VALPAC
_audit_creation_date 2016-03-10
_audit_creation_method CSD-ConQuest-V1
_database_code_CSD VALPAC
_database_code_depnum_ccdc_archive 'CCDC 1440297'
_chemical_formula_sum 'C40 H45 Eu1 N2 O7 S2'
_chemical_formula_moiety
;
C39 H41 Eu1 N2 O6 S2,C1 H4 O1
;
_journal_coden_Cambridge 222
_journal_volume 45
_journal_year 2016
_journal_page_first 5451
_journal_name_full 'Dalton Trans. '
loop_
_publ_author_name
"Jin-Feng Mei"
"Zhong-Peng Lv"
"Jian-Cheng Lai"
"Xiao-Yong Jia"
"Cheng-Hui Li"
"Jing-Lin Zuo"
"Xiao-Zeng You"
_chemical_name_systematic
;
tris(Acetylacetonato)-(5,6-bis(2,5-dimethyl-3-thienyl)-1,10-phenanthroline)-eu
ropium methanol solvate
;
_cell_volume   4076.293
_exptl_crystal_colour 'colorless'
_exptl_crystal_density_diffrn 1.437
_exptl_crystal_description 'block'
_diffrn_ambient_temperature 296
#These two values have been output from a single CSD field.
_refine_ls_R_factor_gt 0.0842
_refine_ls_wR_factor_gt 0.0842
_symmetry_cell_setting monoclinic
_symmetry_space_group_name_H-M 'P 21/n'
_symmetry_Int_Tables_number 14
loop_
_symmetry_equiv_pos_site_id
_symmetry_equiv_pos_as_xyz
1 x,y,z
2 1/2-x,1/2+y,1/2-z
3 -x,-y,-z
4 -1/2+x,-1/2-y,-1/2+z
_cell_length_a 15.514(8)
_cell_length_b 16.468(8)
_cell_length_c 16.153(8)
_cell_angle_alpha 90
_cell_angle_beta 98.977(8)
_cell_angle_gamma 90
_cell_formula_units_Z 4
loop_
_atom_type_symbol
_atom_type_radius_bond
C 0.68
H 0.23
Eu 1.98
N 0.68
O 0.68
S 1.02
loop_
_atom_site_label
_atom_site_type_symbol
_atom_site_fract_x
_atom_site_fract_y
_atom_site_fract_z
C1 C 0.0843(13) 0.3955(11) 0.5504(12)
H1 H 0.14070 0.42080 0.55610
H2 H 0.04130 0.43540 0.55890
H3 H 0.06990 0.37280 0.49520
C2 C 0.0856(9) 0.3277(8) 0.6161(8)
C3 C 0.0178(9) 0.3233(9) 0.6630(9)
H4 H -0.02810 0.35990 0.65110
C4 C 0.0152(9) 0.2669(8) 0.7270(9)
C5 C -0.0542(11) 0.2772(11) 0.7846(12)
H5 H -0.05220 0.23140 0.82170
H6 H -0.11100 0.28050 0.75120
H7 H -0.04280 0.32600 0.81690
C6 C -0.0797(10) 0.1402(10) 0.4654(11)
H8 H -0.11530 0.18440 0.47920
H9 H -0.11650 0.09640 0.44200
H10 H -0.04430 0.15830 0.42520
C7 C -0.0213(9) 0.1112(8) 0.5441(9)
C8 C -0.0494(10) 0.0515(9) 0.5968(11)
H11 H -0.10730 0.03490 0.58420
C9 C -0.0020(9) 0.0172(8) 0.6613(10)
C10 C -0.0434(12) -0.0505(9) 0.7067(13)
H12 H -0.00280 -0.06840 0.75420
H13 H -0.05820 -0.09530 0.66900
H14 H -0.09520 -0.03040 0.72530
C11 C 0.2837(13) 0.0979(12) 0.9496(9)
H15 H 0.27680 0.14550 0.98230
H16 H 0.33630 0.07020 0.97300
H17 H 0.23470 0.06250 0.95030
C12 C 0.2887(11) 0.1217(9) 0.8633(9)
C13 C 0.3664(11) 0.1564(9) 0.8441(10)
H18 H 0.41560 0.15480 0.88520
C14 C 0.3744(9) 0.1920(8) 0.7697(9)
C15 C 0.4604(10) 0.2275(10) 0.7595(11)
H19 H 0.49590 0.18650 0.73930
H20 H 0.48900 0.24740 0.81260
H21 H 0.45170 0.27140 0.72010
C16 C 0.2200(8) 0.1912(7) 0.4735(7)
H22 H 0.19840 0.24070 0.48890
C17 C 0.2383(9) 0.1840(7) 0.3941(8)
H23 H 0.22800 0.22720 0.35680
C18 C 0.2719(8) 0.1133(7) 0.3700(8)
H24 H 0.28480 0.10700 0.31600
C19 C 0.2866(7) 0.0498(6) 0.4287(7)
C20 C 0.2648(7) 0.0617(7) 0.5077(7)
C21 C 0.2771(6) -0.0019(6) 0.5684(7)
C22 C 0.3138(6) -0.0766(6) 0.5477(6)
C23 C 0.3211(7) -0.1377(7) 0.6080(7)
H25 H 0.34480 -0.18770 0.59690
C24 C 0.2938(7) -0.1247(7) 0.6835(7)
H26 H 0.29850 -0.16540 0.72390
C25 C 0.2586(7) -0.0485(7) 0.6985(7)
H27 H 0.23950 -0.03970 0.74960
C26 C 0.3206(7) -0.0283(7) 0.4071(7)
C27 C 0.33469(4) -0.08980(3) 0.46450(3)
C28 C 0.33400(4) -0.04298(3) 0.32078(3)
C29 C 0.26032(4) -0.06739(3) 0.25835(3)
H28 H 0.20590 -0.08200 0.27090
C30 C 0.28153(4) -0.06615(3) 0.17630(3)
C31 C 0.21883(4) -0.08316(3) 0.09392(3)
H29 H 0.16770 -0.11050 0.10640
H30 H 0.24760 -0.11680 0.05810
H31 H 0.20220 -0.03280 0.06610
C32 C 0.40769(4) -0.02820(3) 0.29060(3)
C33 C 0.49334(4) -0.00631(3) 0.32931(3)
H32 H 0.49220 0.00930 0.38640
H33 H 0.51380 0.03840 0.29950
H34 H 0.53180 -0.05190 0.32810
C34 C 0.36777(4) -0.16939(3) 0.44543(3)
C35 C 0.45351(4) -0.19473(3) 0.46423(3)
H35 H 0.49590 -0.15950 0.49090
C36 C 0.47769(4) -0.27712(3) 0.44221(3)
C37 C 0.56789(4) -0.30792(3) 0.46121(3)
H36 H 0.60660 -0.27080 0.43960
H37 H 0.57130 -0.36020 0.43560
H38 H 0.58440 -0.31280 0.52080
C38 C 0.31238(4) -0.23634(3) 0.40694(3)
C39 C 0.22789(4) -0.23022(3) 0.36911(3)
H39 H 0.20630 -0.17690 0.37830
H40 H 0.19320 -0.27000 0.39230
H41 H 0.22460 -0.23940 0.31000
Eu1 Eu 0.16828(4) 0.14578(3) 0.67074(3)
N1 N 0.2305(6) 0.1338(5) 0.5293(5)
N2 N 0.2514(6) 0.0113(5) 0.6431(6)
O1 O 0.1520(5) 0.2813(4) 0.6234(4)
O2 O 0.0702(6) 0.2117(5) 0.7477(5)
O3 O 0.0516(6) 0.1430(5) 0.5591(5)
O4 O 0.0762(5) 0.0372(5) 0.6942(6)
O5 O 0.2200(6) 0.1088(6) 0.8118(5)
O6 O 0.3172(2) 0.19340(19) 0.70596(19)
S1 S 0.3885(2) -0.04598(19) 0.17911(19)
S2 S 0.3938(2) -0.31192(19) 0.40069(19)
O7 O 0.062(3) 0.013(2) 0.884(3)
H42 H 0.11440 0.02210 0.88540
C40 C 0.015(2) 0.0868(16) 0.8715(19)
H43 H -0.04580 0.07660 0.87450
H44 H 0.01980 0.10870 0.81740
H45 H 0.03740 0.12500 0.91420
#END

data_CSD_CIF_VOCPUZ
_audit_creation_date 2008-08-21
_audit_creation_method CSD-ConQuest-V1
_database_code_CSD VOCPUZ
_database_code_depnum_ccdc_archive 'CCDC 630674'
_chemical_formula_sum 'C34 H47 Gd1 N2 O6'
_chemical_formula_moiety
;
C34 H47 Gd1 N2 O6
;
_journal_coden_Cambridge 233
_journal_volume 52
_journal_year 2007
_journal_page_first 1460
_journal_name_full 'Zh.Neorg.Khim.(Russ.)(Russ.J.Inorg.Chem.) '
loop_
_publ_author_name
"A.Yu.Rogachev"
"L.Kh.Minacheva"
"V.S.Sergienko"
"N.P.Kuz'mina"
"A.V.Nemukhin"
_chemical_name_systematic
;
tris(Pivaloylacetonato-O,O')-(2,2'-bipyridyl)-gadolinium(iii)
;
_cell_volume   1798.739
_exptl_crystal_colour 'colorless'
_exptl_crystal_density_diffrn 1.361
_exptl_crystal_description 'block'
_diffrn_ambient_temperature 295
#These two values have been output from a single CSD field.
_refine_ls_R_factor_gt 0.0697
_refine_ls_wR_factor_gt 0.0697
_symmetry_cell_setting monoclinic
_symmetry_space_group_name_H-M 'P 21'
_symmetry_Int_Tables_number 4
loop_
_symmetry_equiv_pos_site_id
_symmetry_equiv_pos_as_xyz
1 x,y,z
2 -x,1/2+y,-z
_cell_length_a 9.5361(10)
_cell_length_b 15.0732(10)
_cell_length_c 13.2801(10)
_cell_angle_alpha 90
_cell_angle_beta 109.558(10)
_cell_angle_gamma 90
_cell_formula_units_Z 2
loop_
_atom_type_symbol
_atom_type_radius_bond
C 0.68
H 0.23
Gd 1.79
N 0.68
O 0.68
loop_
_atom_site_label
_atom_site_type_symbol
_atom_site_fract_x
_atom_site_fract_y
_atom_site_fract_z
Gd1 Gd -0.23575(15) 0.7709(4) 0.61675(13)
O1 O -0.339(4) 0.877(2) 0.709(3)
O2 O -0.092(2) 0.9089(16) 0.6549(17)
O3 O -0.4818(18) 0.773(4) 0.5003(15)
O4 O -0.237(2) 0.8248(17) 0.4469(19)
O5 O -0.350(6) 0.691(3) 0.704(4)
O6 O -0.0587(19) 0.764(4) 0.7828(18)
N1 N -0.006(2) 0.7016(17) 0.596(2)
N2 N -0.265(2) 0.6277(16) 0.5316(19)
C1 C -0.377(4) 0.960(2) 0.847(3)
C2 C -0.288(3) 0.931(2) 0.777(3)
C3 C -0.159(4) 0.980(3) 0.786(3)
H1 H -0.12850 1.02220 0.83930
C4 C -0.075(4) 0.968(3) 0.719(3)
C5 C 0.069(6) 1.021(4) 0.743(4)
H2 H 0.11460 1.00780 0.69000
H3 H 0.13620 1.00570 0.81230
H4 H 0.04700 1.08340 0.74060
C6 C -0.270(5) 0.957(4) 0.963(3)
H5 H -0.32000 0.97900 1.00990
H6 H -0.18510 0.99390 0.96940
H7 H -0.23820 0.89730 0.98180
C7 C -0.436(8) 1.056(3) 0.823(6)
H8 H -0.48790 1.07240 0.87060
H9 H -0.50230 1.05970 0.75040
H10 H -0.35350 1.09570 0.83240
C8 C -0.506(5) 0.895(3) 0.833(5)
H11 H -0.56350 0.91410 0.87640
H12 H -0.46640 0.83690 0.85580
H13 H -0.56790 0.89320 0.75970
C9 C -0.713(4) 0.791(4) 0.349(3)
H14 H -0.76860 0.77200 0.39360
H15 H -0.75780 0.76770 0.27850
H16 H -0.71420 0.85510 0.34590
C10 C -0.541(3) 0.756(2) 0.399(2)
C11 C -0.470(3) 0.798(2) 0.325(2)
H17 H -0.53490 0.81390 0.25770
C12 C -0.316(3) 0.8154(19) 0.344(3)
C13 C -0.264(3) 0.8206(19) 0.259(3)
C14 C -0.301(8) 0.906(2) 0.196(6)
H18 H -0.25300 0.95500 0.24070
H19 H -0.40700 0.91550 0.17100
H20 H -0.26720 0.90300 0.13550
C15 C -0.323(4) 0.748(2) 0.173(3)
H21 H -0.27970 0.75510 0.11770
H22 H -0.42960 0.75210 0.14190
H23 H -0.29720 0.69020 0.20500
C16 C -0.099(3) 0.812(3) 0.295(4)
H24 H -0.05400 0.86290 0.33610
H25 H -0.06720 0.80750 0.23340
H26 H -0.06910 0.75940 0.33760
C17 C -0.413(7) 0.615(5) 0.855(5)
H27 H -0.51270 0.61110 0.80660
H28 H -0.41130 0.65030 0.91610
H29 H -0.37520 0.55710 0.87860
C18 C -0.314(4) 0.660(3) 0.799(3)
C19 C -0.168(4) 0.664(3) 0.884(3)
H30 H -0.15430 0.63660 0.94970
C20 C -0.050(4) 0.710(3) 0.866(3)
C21 C 0.103(4) 0.718(3) 0.957(3)
C22 C 0.192(7) 0.654(4) 0.912(5)
H31 H 0.29370 0.65250 0.95880
H32 H 0.18870 0.67360 0.84230
H33 H 0.15010 0.59550 0.90660
C23 C 0.108(8) 0.672(5) 1.059(4)
H34 H 0.20500 0.67820 1.11140
H35 H 0.08540 0.61000 1.04520
H36 H 0.03520 0.69810 1.08600
C24 C 0.182(8) 0.807(3) 0.964(6)
H37 H 0.27500 0.80530 1.02260
H38 H 0.12090 0.85350 0.97650
H39 H 0.20120 0.81820 0.89890
C25 C 0.125(2) 0.7461(19) 0.625(2)
H40 H 0.12890 0.80290 0.65360
C26 C 0.255(3) 0.710(2) 0.615(3)
H41 H 0.34310 0.74190 0.63450
C27 C 0.248(5) 0.630(3) 0.577(3)
H42 H 0.33690 0.60520 0.57700
C28 C 0.125(6) 0.580(4) 0.539(5)
H43 H 0.12420 0.52460 0.50790
C29 C -0.010(4) 0.624(3) 0.551(3)
C30 C -0.143(4) 0.576(2) 0.523(3)
C31 C -0.172(5) 0.486(4) 0.484(5)
H44 H -0.09780 0.45130 0.47340
C32 C -0.309(5) 0.455(3) 0.465(3)
H45 H -0.32580 0.39700 0.44030
C33 C -0.430(4) 0.499(2) 0.477(3)
H46 H -0.51950 0.47160 0.47080
C34 C -0.401(5) 0.592(3) 0.499(3)
H47 H -0.48190 0.62940 0.49040
#END

data_CSD_CIF_VONLUH
_audit_creation_date 2014-08-21
_audit_creation_method CSD-ConQuest-V1
_database_code_CSD VONLUH
_database_code_depnum_ccdc_archive 'CCDC 991860'
_chemical_formula_sum 'C48 H55 Er1 N2 O6'
_chemical_formula_moiety
;
C48 H55 Er1 N2 O6
;
_journal_coden_Cambridge 580
_journal_volume 81
_journal_year 2014
_journal_page_first 485
_journal_name_full 'Polyhedron '
loop_
_publ_author_name
"P.S.P.da Silva"
"P.Martin-Ramos"
"M.R.Silva"
"V.Lavin"
"P.Chamorro-Posada"
"J.Martin-Gil"
_chemical_name_systematic
;
tris(2,4-Octanedionato)-(bathophenanthroline)-erbium(iii)
;
_chemical_name_common
;
tris(2,4-Octanedionato)-(4,7-diphenyl-1,10-phenanthroline)-erbium(iii)
;
_cell_volume   2293.570
_exptl_crystal_colour 'light pink'
_exptl_crystal_density_diffrn 1.337
_exptl_crystal_description 'needle'
_diffrn_ambient_temperature 293
_refine_special_details
;
C17B,C18B,C19B and C17A,C18A,C19A disordered over two sites with occupancies 
0.533:0.467; C9A and C9B disordered over two sites with occupancies 
0.548:0.452.
;
#These two values have been output from a single CSD field.
_refine_ls_R_factor_gt 0.0597
_refine_ls_wR_factor_gt 0.0597
_symmetry_cell_setting triclinic
_symmetry_space_group_name_H-M 'P -1'
_symmetry_Int_Tables_number 2
loop_
_symmetry_equiv_pos_site_id
_symmetry_equiv_pos_as_xyz
1 x,y,z
2 -x,-y,-z
_cell_length_a 12.2423(3)
_cell_length_b 12.9649(4)
_cell_length_c 15.1860(4)
_cell_angle_alpha 97.250(2)
_cell_angle_beta 91.861(2)
_cell_angle_gamma 105.927(2)
_cell_formula_units_Z 2
loop_
_atom_type_symbol
_atom_type_radius_bond
C 0.68
H 0.23
Er 1.89
N 0.68
O 0.68
loop_
_atom_site_label
_atom_site_type_symbol
_atom_site_fract_x
_atom_site_fract_y
_atom_site_fract_z
Er1 Er 0.35208(3) 0.59167(3) 0.19956(2)
O1 O 0.3458(4) 0.5081(4) 0.3227(3)
O2 O 0.3976(4) 0.4313(4) 0.1568(3)
O3 O 0.2171(4) 0.6502(4) 0.2746(3)
O4 O 0.1851(4) 0.4637(4) 0.1555(3)
O5 O 0.3915(4) 0.7732(3) 0.1797(3)
O6 O 0.3352(4) 0.5929(4) 0.0500(3)
C1 C 0.3110(12) 0.5384(11) 0.6593(7)
H1 H 0.37800 0.59700 0.65630
H2 H 0.31360 0.51220 0.71540
H3 H 0.24470 0.56360 0.65350
C2 C 0.3060(11) 0.4546(8) 0.5902(6)
H4 H 0.23340 0.40100 0.59150
H5 H 0.36440 0.42100 0.60550
C3 C 0.3182(9) 0.4733(8) 0.4992(5)
H6 H 0.25860 0.50540 0.48350
H7 H 0.38990 0.52840 0.49820
C4 C 0.3157(10) 0.3895(8) 0.4296(6)
H8 H 0.24220 0.33620 0.42820
H9 H 0.37260 0.35480 0.44650
C5 C 0.3343(8) 0.4122(6) 0.3359(5)
C6 C 0.3394(7) 0.3304(6) 0.2712(5)
H10 H 0.32160 0.26090 0.28670
C7 C 0.3680(6) 0.3408(6) 0.1861(5)
C8 C 0.3644(8) 0.2420(6) 0.1209(6)
H11 H 0.29560 0.22230 0.08290
H12 H 0.36660 0.18310 0.15270
H13 H 0.42890 0.25760 0.08540
C9 C 0.0437(9) 0.7535(10) 0.5098(5)
H14 H 0.09120 0.82790 0.52060
H15 H -0.03060 0.75270 0.48490
C10 C 0.1006(10) 0.6813(10) 0.4433(7)
H16 H 0.18220 0.71470 0.44720
H17 H 0.08790 0.61050 0.46240
C11 C 0.0590(8) 0.6677(8) 0.3551(7)
H18 H 0.06910 0.73860 0.33670
H19 H -0.02200 0.63170 0.35090
C12 C 0.1163(7) 0.6027(7) 0.2914(5)
C13 C 0.0540(7) 0.4976(7) 0.2539(6)
H20 H -0.01680 0.46870 0.27510
C14 C 0.0904(7) 0.4334(7) 0.1871(5)
C15 C 0.0147(9) 0.3217(8) 0.1573(7)
H21 H 0.00900 0.30750 0.09340
H22 H -0.05970 0.31580 0.17810
H23 H 0.04610 0.26990 0.18110
C16 C 0.7314(12) 1.0795(12) 0.1893(14)
H24 H 0.70200 1.12200 0.23380
H25 H 0.76380 1.12330 0.14500
H26 H 0.78910 1.05400 0.21650
C17 C 0.6400(8) 0.9878(14) 0.1478(9)
H27 H 0.61860 0.99880 0.08840
H28 H 0.66380 0.92200 0.14340
C18 C 0.5449(7) 0.980(2) 0.2034(7)
H29 H 0.54800 1.04860 0.23810
H30 H 0.54080 0.92560 0.24290
C19 C 0.4508(6) 0.9460(6) 0.1353(5)
H31 H 0.45870 0.97740 0.08030
H32 H 0.39220 0.96950 0.16680
C20 C 0.4121(6) 0.8227(5) 0.1128(5)
C21 C 0.3942(6) 0.7759(6) 0.0263(5)
H33 H 0.41170 0.82120 -0.01720
C22 C 0.3522(6) 0.6666(6) -0.0017(5)
C23 C 0.3213(7) 0.6262(6) -0.0992(5)
H34 H 0.37750 0.59370 -0.12330
H35 H 0.31860 0.68580 -0.13000
H36 H 0.24810 0.57340 -0.10650
N1 N 0.4862(4) 0.7136(4) 0.3261(3)
N2 N 0.5619(4) 0.6498(4) 0.1728(3)
C24 C 0.4473(6) 0.7402(5) 0.4023(5)
H37 H 0.37030 0.71170 0.40970
C25 C 0.5162(6) 0.8094(6) 0.4729(4)
H38 H 0.48470 0.82540 0.52600
C26 C 0.6311(6) 0.8543(5) 0.4644(4)
C27 C 0.6727(6) 0.8282(5) 0.3828(4)
C28 C 0.5977(5) 0.7549(5) 0.3155(4)
C29 C 0.7892(6) 0.8699(5) 0.3629(5)
H39 H 0.83980 0.91910 0.40570
C30 C 0.8278(6) 0.8400(5) 0.2843(5)
H40 H 0.90380 0.86940 0.27410
C31 C 0.7543(5) 0.7639(5) 0.2162(4)
C32 C 0.6383(6) 0.7215(5) 0.2329(4)
C33 C 0.7919(6) 0.7278(5) 0.1341(4)
C34 C 0.7146(6) 0.6528(6) 0.0760(5)
H41 H 0.73690 0.62460 0.02240
C35 C 0.6003(6) 0.6179(6) 0.0975(5)
H42 H 0.54860 0.56890 0.05530
C36 C 0.7033(6) 0.9268(5) 0.5429(4)
C37 C 0.6651(6) 1.0074(6) 0.5894(5)
H43 H 0.59800 1.01990 0.56930
C38 C 0.7255(7) 1.0692(6) 0.6650(5)
H44 H 0.70090 1.12500 0.69460
C39 C 0.8231(7) 1.0478(7) 0.6965(5)
H45 H 0.86330 1.08740 0.74860
C40 C 0.8597(7) 0.9675(6) 0.6502(5)
H46 H 0.92620 0.95410 0.67060
C41 C 0.8014(6) 0.9071(6) 0.5753(5)
H47 H 0.82740 0.85220 0.54550
C42 C 0.9094(6) 0.7711(6) 0.1105(5)
C43 C 0.9495(6) 0.8733(7) 0.0938(5)
H48 H 0.90210 0.91840 0.10090
C44 C 1.0559(8) 0.9148(8) 0.0672(6)
H49 H 1.07880 0.98480 0.05270
C45 C 1.1298(8) 0.8496(8) 0.0622(5)
H50 H 1.20330 0.87640 0.04500
C46 C 1.0952(7) 0.7479(8) 0.0824(6)
H51 H 1.14560 0.70550 0.08060
C47 C 0.9835(7) 0.7054(8) 0.1062(5)
H52 H 0.95900 0.63470 0.11890
H53 H 0.08790 0.66630 0.59550
C48 C 0.033(3) 0.7064(15) 0.5914(9)
H54 H -0.04220 0.65870 0.59180
H55 H 0.04670 0.76300 0.64120
C49? C 0.6738(13) 1.136(2) 0.3088(9)
H56? H 0.62990 1.15330 0.35680
H57? H 0.73430 1.19910 0.30200
H58? H 0.70550 1.07920 0.32180
C50? C 0.6016(16) 1.1008(7) 0.2277(10)
H59? H 0.64270 1.13840 0.18220
H60? H 0.53580 1.12790 0.23670
C51? C 0.5583(8) 0.9873(9) 0.1896(10)
H61? H 0.55230 0.94530 0.23860
H62? H 0.61660 0.97000 0.15360
H63? H 0.07860 0.81330 0.63740
C52? C 0.1206(14) 0.797(2) 0.5879(9)
H64? H 0.15820 0.74370 0.60120
H65? H 0.17640 0.86110 0.57720
#END

data_CSD_CIF_VONMAO
_audit_creation_date 2014-08-21
_audit_creation_method CSD-ConQuest-V1
_database_code_CSD VONMAO
_database_code_depnum_ccdc_archive 'CCDC 991861'
_chemical_formula_sum 'C36 H46 Er1 N3 O8'
_chemical_formula_moiety
;
C36 H46 Er1 N3 O8
;
_journal_coden_Cambridge 580
_journal_volume 81
_journal_year 2014
_journal_page_first 485
_journal_name_full 'Polyhedron '
loop_
_publ_author_name
"P.S.P.da Silva"
"P.Martin-Ramos"
"M.R.Silva"
"V.Lavin"
"P.Chamorro-Posada"
"J.Martin-Gil"
_chemical_name_systematic
;
tris(2,4-Octanedionato)-(5-nitro-1,10-phenanthroline)-erbium(iii)
;
_cell_volume   3691.092
_exptl_crystal_colour 'yellow'
_exptl_crystal_density_diffrn 1.468
_exptl_crystal_description 'prism'
_diffrn_ambient_temperature 293
_refine_special_details
;
C27B,C28B and C27A,C28A disordered over two sites with occupancies 
0.758:0.242.
;
#These two values have been output from a single CSD field.
_refine_ls_R_factor_gt 0.047
_refine_ls_wR_factor_gt 0.047
_symmetry_cell_setting monoclinic
_symmetry_space_group_name_H-M 'P 21/c'
_symmetry_Int_Tables_number 14
loop_
_symmetry_equiv_pos_site_id
_symmetry_equiv_pos_as_xyz
1 x,y,z
2 -x,1/2+y,1/2-z
3 -x,-y,-z
4 x,-1/2-y,-1/2+z
_cell_length_a 20.8893(5)
_cell_length_b 9.5161(2)
_cell_length_c 19.3390(5)
_cell_angle_alpha 90
_cell_angle_beta 106.230(2)
_cell_angle_gamma 90
_cell_formula_units_Z 4
loop_
_atom_type_symbol
_atom_type_radius_bond
C 0.68
H 0.23
Er 1.89
N 0.68
O 0.68
loop_
_atom_site_label
_atom_site_type_symbol
_atom_site_fract_x
_atom_site_fract_y
_atom_site_fract_z
Er1 Er 0.232007(7) 0.839549(14) 0.458443(7)
O1 O 0.13729(15) 0.3368(3) 0.13527(13)
O2 O 0.19115(17) 0.1641(2) 0.19440(14)
O3 O 0.15119(11) 0.8222(2) 0.51750(11)
O4 O 0.13915(10) 0.9497(2) 0.38581(10)
O5 O 0.28643(11) 0.7328(2) 0.56674(11)
O6 O 0.32543(11) 0.7419(3) 0.44263(12)
O7 O 0.26343(11) 1.0242(2) 0.53701(11)
O8 O 0.27508(11) 1.0070(2) 0.39910(11)
N1 N 0.20714(12) 0.7253(2) 0.33060(12)
N2 N 0.19116(12) 0.5837(2) 0.44461(11)
N3 N 0.17008(15) 0.2803(3) 0.19184(13)
C1 C 0.18110(14) 0.5142(3) 0.49976(13)
H1 H 0.18260 0.56470 0.54130
C2 C 0.16861(17) 0.3728(3) 0.50001(16)
H2 H 0.16020 0.33030 0.53990
C3 C 0.16877(17) 0.2961(3) 0.44098(16)
H3 H 0.16280 0.19930 0.44070
C4 C 0.17808(15) 0.3646(3) 0.38055(15)
C5 C 0.17478(16) 0.2942(3) 0.31672(16)
H4 H 0.16950 0.19710 0.31480
C6 C 0.17913(17) 0.3641(3) 0.25749(15)
C7 C 0.18995(14) 0.5149(3) 0.25814(14)
C8 C 0.20009(17) 0.5942(4) 0.20124(17)
H5 H 0.19980 0.55080 0.15810
C9 C 0.21026(19) 0.7338(4) 0.20919(16)
H6 H 0.21530 0.78730 0.17080
C10 C 0.21323(18) 0.7981(4) 0.27459(17)
H7 H 0.21970 0.89470 0.27900
C11 C 0.19560(14) 0.5851(3) 0.32348(14)
C12 C 0.18797(13) 0.5084(3) 0.38518(13)
C13 C 0.0525(2) 0.7755(5) 0.5525(2)
H8 H 0.05270 0.67470 0.55020
H9 H 0.00740 0.80890 0.53860
H10 H 0.07410 0.80530 0.60090
C14 C 0.09024(18) 0.8360(3) 0.50101(18)
C15 C 0.05193(18) 0.8978(4) 0.43612(19)
H11 H 0.00600 0.90220 0.42820
C16 C 0.07866(17) 0.9529(3) 0.38271(17)
C17 C 0.03143(17) 1.0261(4) 0.31737(18)
H12 H -0.01410 1.00790 0.31800
H13 H 0.03870 1.12670 0.32270
C18 C 0.0385(2) 0.9841(4) 0.24737(18)
H14 H 0.02420 0.88710 0.23830
H15 H 0.08520 0.98860 0.24890
C19 C -0.0012(2) 1.0740(5) 0.18556(16)
H16 H -0.04790 1.06970 0.18430
H17 H 0.01320 1.17080 0.19460
C20 C 0.0053(3) 1.0328(6) 0.11644(18)
H18 H 0.04890 1.05790 0.11310
H19 H -0.02790 1.08000 0.07920
H20 H -0.00060 0.93300 0.11080
C21 C 0.3498(2) 0.5970(5) 0.66345(19)
H21 H 0.38050 0.65990 0.69500
H22 H 0.36940 0.50520 0.66630
H23 H 0.30940 0.59200 0.67770
C22 C 0.3343(2) 0.6509(3) 0.58643(18)
C23 C 0.3738(2) 0.6037(4) 0.5446(2)
H24 H 0.40560 0.53490 0.56300
C24 C 0.36741(19) 0.6567(4) 0.4746(2)
C25 C 0.4165(2) 0.6082(5) 0.4335(2)
H25 H 0.45520 0.66920 0.44750
H26 H 0.43130 0.51450 0.45030
C26 C 0.39429(14) 0.6040(5) 0.35378(18)
H27 H 0.38350 0.50840 0.33710
H28 H 0.35500 0.66200 0.33560
C27 C 0.4398(2) 0.5537(6) 0.31131(17)
H29 H 0.47600 0.62100 0.31900
H30 H 0.45920 0.46600 0.33290
C28 C 0.4158(9) 0.5300(16) 0.2345(2)
H31 H 0.37240 0.57160 0.21630
H32 H 0.41290 0.43090 0.22500
H33 H 0.44600 0.57200 0.21110
C29 C 0.3226(2) 1.1958(4) 0.6128(3)
H34 H 0.36320 1.24810 0.61990
H35 H 0.32790 1.12730 0.65050
H36 H 0.28690 1.25860 0.61390
C30 C 0.3063(2) 1.1216(4) 0.5402(2)
C31 C 0.3309(2) 1.1592(4) 0.4846(2)
H37 H 0.36260 1.23040 0.49380
C32 C 0.31420(18) 1.1045(4) 0.4185(2)
C33 C 0.3456(2) 1.1638(4) 0.3619(3)
H38 H 0.31070 1.17710 0.31720
H39 H 0.36430 1.25550 0.37790
C34 C 0.3998(2) 1.0723(7) 0.3470(2)
H40 H 0.38410 0.97620 0.33850
H41 H 0.41060 1.10560 0.30420
C35 C 0.45750(16) 1.0771(9) 0.4070(3)
H42 H 0.44950 1.01530 0.44350
H43 H 0.46070 1.17180 0.42630
C36 C 0.5220(2) 1.0415(9) 0.3987(4)
H44 H 0.51910 0.95400 0.37330
H45 H 0.55350 1.03260 0.44540
H46 H 0.53640 1.11410 0.37210
C37? C 0.4498(2) 0.6577(5) 0.3286(4)
H47? H 0.48840 0.59940 0.34950
H48? H 0.43820 0.64410 0.27680
C38? C 0.4699(9) 0.8038(6) 0.343(2)
H49? H 0.45960 0.85540 0.29880
H50? H 0.51700 0.80810 0.36590
H51? H 0.44640 0.84420 0.37450
#END

data_CSD_CIF_XALFIA
_audit_creation_date 2005-08-11
_audit_creation_method CSD-ConQuest-V1
_database_code_CSD XALFIA
_database_code_depnum_ccdc_archive 'CCDC 268975'
_chemical_formula_sum 'C33 H37 Eu1 N2 O10'
_chemical_formula_moiety
;
C33 H37 Eu1 N2 O10
;
_journal_coden_Cambridge 9
_journal_volume 44
_journal_year 2005
_journal_page_first 1818
_journal_name_full 'Inorg.Chem. '
loop_
_publ_author_name
"A.Bellusci"
"G.Barberio"
"A.Crispini"
"M.Ghedini"
"M.La Deda"
"D.Pucci"
_chemical_name_systematic
;
tris(Acetylacetonato-O,O')-(diethyl 
1,10-phenanthroline-4,7-dicarboxylate-N,N')-europium(iii)
;
_cell_volume   6879.347
_exptl_crystal_colour 'colorless'
_exptl_crystal_density_diffrn 1.494
_exptl_special_details
;
The central carbon atoms of the acetylacetonato ligands were incorrectly 
assigned two hydrogen atoms
;
_exptl_crystal_description 'plate'
_diffrn_ambient_temperature 293
#These two values have been output from a single CSD field.
_refine_ls_R_factor_gt 0.0668
_refine_ls_wR_factor_gt 0.0668
_symmetry_cell_setting monoclinic
_symmetry_space_group_name_H-M 'C 2/c'
_symmetry_Int_Tables_number 15
loop_
_symmetry_equiv_pos_site_id
_symmetry_equiv_pos_as_xyz
1 x,y,z
2 1/2+x,1/2+y,z
3 -x,y,1/2-z
4 1/2-x,1/2+y,1/2-z
5 -x,-y,-z
6 -1/2-x,-1/2-y,-z
7 x,-y,-1/2+z
8 -1/2+x,-1/2-y,-1/2+z
_cell_length_a 15.303(3)
_cell_length_b 28.546(6)
_cell_length_c 16.856(3)
_cell_angle_alpha 90
_cell_angle_beta 110.89(3)
_cell_angle_gamma 90
_cell_formula_units_Z 8
loop_
_atom_type_symbol
_atom_type_radius_bond
C 0.68
H 0.23
Eu 1.99
N 0.68
O 0.68
loop_
_atom_site_label
_atom_site_type_symbol
_atom_site_fract_x
_atom_site_fract_y
_atom_site_fract_z
Eu1 Eu 0.06950(3) 0.351356(17) 0.00143(3)
O1 O 0.1114(4) 0.4109(2) 0.1055(4)
O2 O 0.0999(5) 0.4200(2) -0.0640(4)
O3 O 0.0890(5) 0.3177(3) -0.1189(4)
O4 O 0.2306(4) 0.3387(2) 0.0364(4)
O5 O 0.1029(5) 0.3061(3) 0.1254(4)
O6 O -0.0347(5) 0.2875(2) -0.0314(4)
O7 O -0.4225(6) 0.3903(4) -0.3289(5)
O8 O -0.3325(5) 0.4314(3) -0.3809(4)
O9 O -0.3840(6) 0.4077(5) 0.0886(5)
O10 O -0.2942(7) 0.3726(4) 0.2000(6)
N1 N -0.0895(5) 0.3798(3) -0.1156(5)
N2 N -0.0774(5) 0.3717(3) 0.0468(5)
C1 C -0.0929(7) 0.3845(4) -0.1939(6)
H1 H -0.03750 0.38190 -0.20450
C2 C -0.1771(7) 0.3934(3) -0.2634(6)
H2 H -0.17650 0.39630 -0.31820
C3 C -0.2588(7) 0.3977(3) -0.2487(6)
C4 C -0.2575(6) 0.3925(3) -0.1651(5)
C5 C -0.1710(6) 0.3843(3) -0.1004(6)
C6 C -0.1629(6) 0.3806(3) -0.0137(6)
C7 C -0.2463(6) 0.3862(3) 0.0079(6)
C8 C -0.3322(6) 0.3938(4) -0.0595(6)
H3 H -0.38640 0.39660 -0.04700
C9 C -0.3385(6) 0.3970(4) -0.1408(6)
H4 H -0.39660 0.40230 -0.18270
C10 C -0.0706(7) 0.3689(3) 0.1259(6)
H5 H -0.01190 0.36320 0.16670
C11 C -0.1469(7) 0.3739(3) 0.1530(6)
H6 H -0.13840 0.37090 0.21020
C12 C -0.2341(6) 0.3832(3) 0.0945(6)
C13 C -0.3472(8) 0.4064(5) -0.3231(6)
C14 C -0.4140(8) 0.4402(6) -0.4584(7)
H7 H -0.44310 0.41080 -0.48290
H8 H -0.45990 0.45910 -0.44530
C15 C -0.3807(11) 0.4649(6) -0.5178(9)
H9 H -0.43240 0.47100 -0.56940
H10 H -0.33520 0.44600 -0.53000
H11 H -0.35260 0.49400 -0.49310
C16 C -0.3136(7) 0.3901(4) 0.1256(7)
C17 C -0.3687(13) 0.3724(7) 0.2370(12)
H12 H -0.42920 0.36720 0.19300
H13 H -0.35760 0.34760 0.27890
C18 C -0.3667(11) 0.4176(8) 0.2766(12)
H14 H -0.41450 0.41870 0.30110
H15 H -0.37770 0.44180 0.23460
H16 H -0.30670 0.42220 0.32030
C19 C 0.1242(7) 0.4544(4) 0.1048(7)
C20 C 0.1154(8) 0.4619(4) -0.0441(7)
C21 C 0.1281(10) 0.4791(4) 0.0355(8)
H17 H 0.08300 0.50430 0.02650
C22 C 0.1218(10) 0.4944(4) -0.1107(8)
H18 H 0.11130 0.47730 -0.16240
H19 H 0.18290 0.50830 -0.09230
H20 H 0.07540 0.51850 -0.12050
C23 C 0.1389(10) 0.4784(4) 0.1887(8)
H21 H 0.13380 0.45580 0.22900
H22 H 0.09230 0.50230 0.18070
H23 H 0.20000 0.49240 0.20970
C24 C 0.1547(9) 0.2982(4) -0.1351(7)
C25 C 0.2474(9) 0.2992(4) -0.0789(8)
H24 H 0.28230 0.31440 -0.10970
C26 C 0.2811(7) 0.3183(4) 0.0019(7)
C27 C 0.1307(10) 0.2727(5) -0.2184(8)
H25 H 0.06460 0.27500 -0.24930
H26 H 0.14810 0.24040 -0.20790
H27 H 0.16400 0.28660 -0.25110
C28 C 0.3851(8) 0.3170(5) 0.0522(8)
H28 H 0.39740 0.33120 0.10660
H29 H 0.41780 0.33380 0.02200
H30 H 0.40600 0.28500 0.05980
C29 C 0.0723(8) 0.2694(4) 0.1471(7)
C30 C -0.0065(9) 0.2442(4) 0.0930(8)
H31 H -0.05260 0.24480 0.12030
C31 C -0.0543(8) 0.2555(4) 0.0077(8)
C32 C 0.1207(9) 0.2518(4) 0.2350(7)
H32 H 0.17230 0.27200 0.26410
H33 H 0.14340 0.22070 0.23290
H34 H 0.07760 0.25140 0.26480
C33 C -0.1401(10) 0.2270(5) -0.0412(9)
H35 H -0.16590 0.23820 -0.09860
H36 H -0.18590 0.23000 -0.01460
H37 H -0.12300 0.19470 -0.04140
H38? H 0.18920 0.49400 0.05480
H39? H 0.26770 0.26680 -0.07200
H40? H 0.01330 0.21190 0.09390
#END

data_CSD_CIF_XALFOG
_audit_creation_date 2005-08-11
_audit_creation_method CSD-ConQuest-V1
_database_code_CSD XALFOG
_database_code_depnum_ccdc_archive 'CCDC 268976'
_chemical_formula_sum 'C27 H33 Er1 N2 O8'
_chemical_formula_moiety
;
C27 H33 Er1 N2 O8
;
_journal_coden_Cambridge 9
_journal_volume 44
_journal_year 2005
_journal_page_first 1818
_journal_name_full 'Inorg.Chem. '
loop_
_publ_author_name
"A.Bellusci"
"G.Barberio"
"A.Crispini"
"M.Ghedini"
"M.La Deda"
"D.Pucci"
_chemical_name_systematic
;
tris(Acetylacetonato-O,O')-(4,4'-dimethoxy-2,2'-bipyridine-N,N')-erbium(iii)
;
_cell_volume   1445.762
_exptl_crystal_colour 'colorless'
_exptl_crystal_density_diffrn 1.571
_exptl_special_details
;
The central carbon atoms of the acetylacetonato ligands were incorrectly 
assigned two hydrogen atoms
;
_exptl_crystal_description 'plate'
_diffrn_ambient_temperature 293
_refine_special_details
;
One of the methyl moieties of one of the acetylacetonato ligands is 
disordered over two sets of positions.
;
#These two values have been output from a single CSD field.
_refine_ls_R_factor_gt 0.0269
_refine_ls_wR_factor_gt 0.0269
_symmetry_cell_setting monoclinic
_symmetry_space_group_name_H-M 'P 21'
_symmetry_Int_Tables_number 4
loop_
_symmetry_equiv_pos_site_id
_symmetry_equiv_pos_as_xyz
1 x,y,z
2 -x,1/2+y,-z
_cell_length_a 8.6406(12)
_cell_length_b 16.578(2)
_cell_length_c 10.1643(14)
_cell_angle_alpha 90
_cell_angle_beta 96.79(3)
_cell_angle_gamma 90
_cell_formula_units_Z 2
loop_
_atom_type_symbol
_atom_type_radius_bond
C 0.68
H 0.23
Er 1.73
N 0.68
O 0.68
loop_
_atom_site_label
_atom_site_type_symbol
_atom_site_fract_x
_atom_site_fract_y
_atom_site_fract_z
Er1 Er -0.015330(16) 0.26515(9) 0.872265(13)
O1 O -0.2059(12) 0.3498(6) 0.9370(9)
O2 O -0.207(1) 0.1819(5) 0.9409(8)
O3 O -0.1410(4) 0.2633(8) 0.6581(3)
O4 O 0.0312(13) 0.3907(5) 0.7778(8)
O5 O 0.0291(13) 0.1400(5) 0.7849(8)
O6 O 0.2362(4) 0.2689(8) 0.8167(3)
O7 O 0.3494(14) 0.4797(4) 1.3672(10)
O8 O 0.3590(14) 0.0518(5) 1.3729(8)
N1 N 0.1228(15) 0.3442(6) 1.0754(10)
N2 N 0.1136(14) 0.1859(5) 1.0618(9)
C1 C 0.1125(17) 0.4238(6) 1.0674(10)
H1 H 0.05510 0.44620 0.99310
C2 C 0.1840(15) 0.4767(7) 1.1658(13)
H2 H 0.17210 0.53240 1.16190
C3 C 0.2743(15) 0.4370(7) 1.2697(11)
C4 C 0.2825(17) 0.3522(8) 1.2711(13)
H3 H 0.34630 0.32540 1.33720
C5 C 0.1988(17) 0.3121(7) 1.1777(11)
C6 C 0.2014(17) 0.2226(7) 1.1695(12)
C7 C 0.2742(16) 0.1722(9) 1.2789(13)
H4 H 0.32200 0.19630 1.35580
C8 C 0.2718(12) 0.0898(6) 1.2677(11)
C9 C 0.1927(18) 0.0572(7) 1.1577(13)
H5 H 0.19020 0.00140 1.14780
C10 C 0.1178(15) 0.1038(6) 1.0628(12)
H6 H 0.06360 0.07750 0.99070
C11 C 0.355(2) 0.5655(7) 1.3655(13)
H7 H 0.41480 0.58460 1.44490
H8 H 0.25090 0.58670 1.36050
H9 H 0.40250 0.58330 1.28980
C12 C 0.3505(18) -0.0350(7) 1.3682(13)
H10 H 0.41290 -0.05710 1.44410
H11 H 0.38870 -0.05400 1.28890
H12 H 0.24410 -0.05170 1.36860
C13 C -0.3146(16) 0.3408(6) 1.0023(12)
C14 C -0.3686(7) 0.260(1) 1.0464(6)
H13 H -0.34920 0.26000 1.14230
C15 C -0.3214(14) 0.1926(8) 1.0094(12)
C16 C -0.4084(17) 0.4161(9) 1.0391(17)
H14 H -0.36580 0.46370 1.00320
H15 H -0.40150 0.42080 1.13370
H16 H -0.51560 0.41030 1.00300
C17 C -0.387(2) 0.1186(10) 1.0506(16)
H17 H -0.33660 0.07370 1.01420
H18 H -0.49680 0.11730 1.01960
H19 H -0.37320 0.11530 1.14550
C18 C -0.0968(7) 0.2861(4) 0.5552(6)
C19 C 0.0025(9) 0.3527(5) 0.5509(6)
H20 H 0.09510 0.33330 0.51560
C20 C 0.056(1) 0.4010(4) 0.6669(8)
C21 C -0.1979(16) 0.2798(10) 0.4282(11)
H21 H -0.27960 0.31930 0.42560
H22 H -0.24280 0.22680 0.41970
H23 H -0.13730 0.28940 0.35640
C22 C 0.143(2) 0.4822(12) 0.6524(15)
H24 H 0.17080 0.50550 0.73840
H25 H 0.07640 0.51860 0.59870
H26 H 0.23580 0.47250 0.61130
C23 C 0.1413(9) 0.1108(4) 0.7173(7)
C24 C 0.2654(7) 0.1564(4) 0.6815(7)
H27 H 0.35730 0.12260 0.69790
C25 C 0.3073(7) 0.2319(4) 0.7348(6)
C26 C 0.123(3) 0.0324(12) 0.6572(19)
H28 H 0.03770 0.00480 0.69010
H29 H 0.21700 0.00180 0.67870
H30 H 0.10220 0.03810 0.56280
C27 C 0.4487(6) 0.2658(16) 0.6898(6)
H31 H 0.47160 0.31690 0.73220
H32 H 0.43270 0.27320 0.59550
H33 H 0.53440 0.22960 0.71230
H34? H -0.48100 0.25960 1.02450
H35? H -0.04890 0.38950 0.48550
C28? C -0.1333(15) 0.2447(7) 0.4230(11)
H36? H -0.05760 0.20330 0.41440
H37? H -0.13020 0.28350 0.35320
H38? H -0.23530 0.22110 0.41730
H39? H 0.24610 0.16370 0.58630
#END

data_CSD_CIF_XUNYIP
_audit_creation_date 2010-09-24
_audit_creation_method CSD-ConQuest-V1
_database_code_CSD XUNYIP
_database_code_depnum_ccdc_archive 'CCDC 752071'
_chemical_formula_sum 'C38 H48 Eu2 N4 O12'
_chemical_formula_moiety
;
C38 H48 Eu2 N4 O12
;
_journal_coden_Cambridge 1145
_journal_volume 20
_journal_year 2010
_journal_page_first 2114
_journal_name_full 'J.Mater.Chem. '
loop_
_publ_author_name
"G.Zucchi"
"Taewoo Jeon"
"D.Tondelier"
"D.Aldakov"
"P.Thuery"
"M.Ephritikhine"
"B.Geffroy"
_chemical_name_systematic
;
(\m~2~-2,2'-Bipyrimidine)-hexakis(acetylacetonato)-di-europium
;
_cell_volume   1064.768
_exptl_crystal_colour 'colorless'
_exptl_crystal_density_diffrn 1.648
_exptl_special_details
;
isomorphous with the Tb and Sm analogues

;
_exptl_crystal_description 'platelet'
_diffrn_ambient_temperature 100
#These two values have been output from a single CSD field.
_refine_ls_R_factor_gt 0.0155
_refine_ls_wR_factor_gt 0.0155
_symmetry_cell_setting triclinic
_symmetry_space_group_name_H-M 'P -1'
_symmetry_Int_Tables_number 2
loop_
_symmetry_equiv_pos_site_id
_symmetry_equiv_pos_as_xyz
1 x,y,z
2 -x,-y,-z
_cell_length_a 9.2290(4)
_cell_length_b 9.8631(5)
_cell_length_c 12.4794(6)
_cell_angle_alpha 107.066(2)
_cell_angle_beta 97.152(3)
_cell_angle_gamma 96.245(3)
_cell_formula_units_Z 1
loop_
_atom_type_symbol
_atom_type_radius_bond
C 0.68
H 0.23
Eu 1.98
N 0.68
O 0.68
loop_
_atom_site_label
_atom_site_type_symbol
_atom_site_fract_x
_atom_site_fract_y
_atom_site_fract_z
Eu1 Eu 0.704437(9) 0.746892(9) 0.839593(8)
O1 O 0.82095(15) 0.66660(15) 0.98042(13)
O2 O 0.54224(15) 0.74772(14) 0.96903(12)
O3 O 0.78742(16) 0.54588(14) 0.72804(13)
O4 O 0.49578(15) 0.59035(15) 0.72722(13)
O5 O 0.79490(15) 0.82803(15) 0.69870(13)
O6 O 0.54530(15) 0.89928(14) 0.79078(12)
N1 N 0.98902(17) 0.83717(17) 0.88520(14)
N2 N 1.19610(17) 1.00680(17) 0.99930(14)
C1 C 1.0507(2) 0.9567(2) 0.96815(17)
C2 C 1.2852(2) 0.9267(2) 0.94029(19)
H1 H 1.38670 0.95720 0.95890
C3 C 1.2326(2) 0.8002(2) 0.85257(19)
H2 H 1.29620 0.74580 0.81270
C4 C 1.0816(2) 0.7591(2) 0.82732(18)
H3 H 1.04250 0.67510 0.76870
C5 C 0.9095(3) 0.5936(3) 1.1370(2)
H4 H 0.94270 0.51140 1.08930
H5 H 0.87260 0.56990 1.19890
H6 H 0.99050 0.67120 1.16640
C6 C 0.7878(2) 0.6383(2) 1.06827(19)
C7 C 0.6499(2) 0.6449(2) 1.10270(19)
H7 H 0.63400 0.61330 1.16410
C8 C 0.5338(2) 0.6961(2) 1.05067(18)
C9 C 0.3894(2) 0.6971(2) 1.0960(2)
H8 H 0.37410 0.79440 1.12860
H9 H 0.39260 0.64970 1.15310
H10 H 0.30970 0.64780 1.03500
C10 C 0.8383(3) 0.3488(3) 0.5847(2)
H11 H 0.91700 0.41000 0.57060
H12 H 0.78780 0.28180 0.51390
H13 H 0.87840 0.29740 0.63300
C11 C 0.7306(2) 0.4390(2) 0.64241(19)
C12 C 0.5803(2) 0.3994(2) 0.59919(19)
H14 H 0.55090 0.31740 0.53670
C13 C 0.4710(2) 0.4757(2) 0.64417(18)
C14 C 0.3109(2) 0.4181(3) 0.5927(2)
H15 H 0.27540 0.34480 0.62350
H16 H 0.30260 0.37830 0.51170
H17 H 0.25320 0.49470 0.61010
C15 C 0.8786(3) 0.9509(3) 0.5773(2)
H18 H 0.96250 1.01210 0.62860
H19 H 0.83760 0.99980 0.52740
H20 H 0.90910 0.86450 0.53330
C16 C 0.7634(2) 0.9135(2) 0.64424(18)
C17 C 0.6325(2) 0.9721(2) 0.64272(19)
H21 H 0.61370 1.02450 0.59300
C18 C 0.5283(2) 0.9561(2) 0.71198(18)
C19 C 0.3831(2) 1.0113(2) 0.6933(2)
H22 H 0.30520 0.93160 0.65890
H23 H 0.39020 1.06980 0.64420
H24 H 0.36190 1.06750 0.76500
Eu1A Eu 1.295563(9) 1.253108(9) 1.160407(8)
O1A O 1.17905(15) 1.33340(15) 1.01958(13)
O2A O 1.45776(15) 1.25228(14) 1.03097(12)
O3A O 1.21258(16) 1.45412(14) 1.27196(13)
O4A O 1.50422(15) 1.40965(15) 1.27278(13)
O5A O 1.20510(15) 1.17197(15) 1.30130(13)
O6A O 1.45470(15) 1.10072(14) 1.20922(12)
N1A N 1.01098(17) 1.16283(17) 1.11480(14)
N2A N 0.80390(17) 0.99320(17) 1.00070(14)
C1A C 0.9493(2) 1.0433(2) 1.03185(17)
C2A C 0.7148(2) 1.0733(2) 1.05971(19)
H1A H 0.61330 1.04280 1.04110
C3A C 0.7674(2) 1.1998(2) 1.14743(19)
H2A H 0.70380 1.25420 1.18730
C4A C 0.9184(2) 1.2409(2) 1.17268(18)
H3A H 0.95750 1.32490 1.23130
C5A C 1.0905(3) 1.4064(3) 0.8630(2)
H4A H 1.05730 1.48860 0.91070
H5A H 1.12740 1.43010 0.80110
H6A H 1.00950 1.32880 0.83360
C6A C 1.2122(2) 1.3617(2) 0.93173(19)
C7A C 1.3501(2) 1.3551(2) 0.89730(19)
H7A H 1.36600 1.38670 0.83590
C8A C 1.4662(2) 1.3039(2) 0.94933(18)
C9A C 1.6106(2) 1.3029(2) 0.9040(2)
H8A H 1.62590 1.20560 0.87140
H9A H 1.60740 1.35030 0.84690
H10A H 1.69030 1.35220 0.96500
C10A C 1.1617(3) 1.6512(3) 1.4153(2)
H11A H 1.08300 1.59000 1.42940
H12A H 1.21220 1.71820 1.48610
H13A H 1.12160 1.70260 1.36700
C11A C 1.2694(2) 1.5610(2) 1.35759(19)
C12A C 1.4197(2) 1.6006(2) 1.40081(19)
H14A H 1.44910 1.68260 1.46330
C13A C 1.5290(2) 1.5243(2) 1.35583(18)
C14A C 1.6891(2) 1.5819(3) 1.4073(2)
H15A H 1.72460 1.65520 1.37650
H16A H 1.69740 1.62170 1.48830
H17A H 1.74680 1.50530 1.38990
C15A C 1.1214(3) 1.0491(3) 1.4227(2)
H18A H 1.03750 0.98790 1.37140
H19A H 1.16240 1.00020 1.47260
H20A H 1.09090 1.13550 1.46670
C16A C 1.2366(2) 1.0865(2) 1.35576(18)
C17A C 1.3675(2) 1.0279(2) 1.35728(19)
H21A H 1.38630 0.97550 1.40700
C18A C 1.4717(2) 1.0439(2) 1.28802(18)
C19A C 1.6169(2) 0.9887(2) 1.3067(2)
H22A H 1.69480 1.06840 1.34110
H23A H 1.60980 0.93020 1.35580
H24A H 1.63810 0.93250 1.23500
#END

data_CSD_CIF_XUNYOV
_audit_creation_date 2010-09-24
_audit_creation_method CSD-ConQuest-V1
_database_code_CSD XUNYOV
_database_code_depnum_ccdc_archive 'CCDC 752072'
_chemical_formula_sum 'C38 H48 N4 O12 Tb2'
_chemical_formula_moiety
;
C38 H48 N4 O12 Tb2
;
_journal_coden_Cambridge 1145
_journal_volume 20
_journal_year 2010
_journal_page_first 2114
_journal_name_full 'J.Mater.Chem. '
loop_
_publ_author_name
"G.Zucchi"
"Taewoo Jeon"
"D.Tondelier"
"D.Aldakov"
"P.Thuery"
"M.Ephritikhine"
"B.Geffroy"
_chemical_name_systematic
;
(\m~2~-2,2'-Bipyrimidine)-hexakis(acetylacetonato)-di-terbium
;
_cell_volume   1064.219
_exptl_crystal_colour 'colorless'
_exptl_crystal_density_diffrn 1.671
_exptl_special_details
;
isomorphous with the Eu and Sm analogues

;
_exptl_crystal_description 'parallelepiped'
_diffrn_ambient_temperature 100
#These two values have been output from a single CSD field.
_refine_ls_R_factor_gt 0.0311
_refine_ls_wR_factor_gt 0.0311
_symmetry_cell_setting triclinic
_symmetry_space_group_name_H-M 'P -1'
_symmetry_Int_Tables_number 2
loop_
_symmetry_equiv_pos_site_id
_symmetry_equiv_pos_as_xyz
1 x,y,z
2 -x,-y,-z
_cell_length_a 9.2276(6)
_cell_length_b 9.8575(10)
_cell_length_c 12.4828(13)
_cell_angle_alpha 106.977(5)
_cell_angle_beta 97.121(6)
_cell_angle_gamma 96.480(6)
_cell_formula_units_Z 1
loop_
_atom_type_symbol
_atom_type_radius_bond
C 0.68
H 0.23
N 0.68
O 0.68
Tb 1.94
loop_
_atom_site_label
_atom_site_type_symbol
_atom_site_fract_x
_atom_site_fract_y
_atom_site_fract_z
Tb1 Tb 0.704144(18) 0.747256(19) 0.839968(15)
O1 O 0.8204(3) 0.6672(3) 0.9801(2)
O2 O 0.5426(3) 0.7479(3) 0.9690(2)
O3 O 0.7857(3) 0.5459(3) 0.7291(3)
O4 O 0.4946(3) 0.5917(3) 0.7272(2)
O5 O 0.7941(3) 0.8270(3) 0.6986(2)
O6 O 0.5465(3) 0.9002(3) 0.7913(2)
N1 N 0.9889(3) 0.8373(3) 0.8854(3)
N2 N 1.1963(3) 1.0071(3) 0.9993(3)
C1 C 1.0503(4) 0.9567(4) 0.9679(3)
C2 C 1.2853(5) 0.9274(5) 0.9405(4)
H1 H 1.38680 0.95850 0.95880
C3 C 1.2323(5) 0.7999(5) 0.8530(4)
H2 H 1.29590 0.74480 0.81390
C4 C 1.0814(4) 0.7595(4) 0.8274(4)
H3 H 1.04190 0.67610 0.76830
C5 C 0.9095(5) 0.5941(6) 1.1370(4)
H4 H 0.94090 0.51050 1.08990
H5 H 0.87320 0.57250 1.19990
H6 H 0.99170 0.67100 1.16480
C6 C 0.7871(5) 0.6389(5) 1.0676(4)
C7 C 0.6482(5) 0.6454(5) 1.1026(4)
H7 H 0.63200 0.61360 1.16390
C8 C 0.5334(5) 0.6967(4) 1.0507(4)
C9 C 0.3891(5) 0.6979(5) 1.0955(4)
H8 H 0.37600 0.79540 1.13050
H9 H 0.39020 0.64740 1.15070
H10 H 0.30900 0.65180 1.03400
C10 C 0.8359(5) 0.3475(5) 0.5867(4)
H11 H 0.91330 0.40760 0.56970
H12 H 0.78430 0.27760 0.51770
H13 H 0.87810 0.29940 0.63680
C11 C 0.7286(5) 0.4392(5) 0.6437(4)
C12 C 0.5774(5) 0.3994(5) 0.6003(4)
H14 H 0.54720 0.31680 0.53850
C13 C 0.4697(5) 0.4770(5) 0.6448(4)
C14 C 0.3089(5) 0.4208(5) 0.5928(4)
H15 H 0.27120 0.34940 0.62500
H16 H 0.30090 0.37880 0.51220
H17 H 0.25270 0.49850 0.60840
C15 C 0.8784(5) 0.9487(5) 0.5762(4)
H18 H 0.96350 1.00900 0.62690
H19 H 0.83760 0.99810 0.52670
H20 H 0.90700 0.86170 0.53180
C16 C 0.7635(5) 0.9126(5) 0.6445(4)
C17 C 0.6323(5) 0.9715(5) 0.6423(4)
H21 H 0.61300 1.02310 0.59190
C18 C 0.5295(4) 0.9559(4) 0.7124(4)
C19 C 0.3841(5) 1.0110(5) 0.6935(4)
H22 H 0.30660 0.93120 0.65660
H23 H 0.39270 1.07230 0.64650
H24 H 0.36120 1.06440 0.76530
Tb1A Tb 1.295856(18) 1.252744(19) 1.160032(15)
O1A O 1.1796(3) 1.3328(3) 1.0199(2)
O2A O 1.4574(3) 1.2521(3) 1.0310(2)
O3A O 1.2143(3) 1.4541(3) 1.2709(3)
O4A O 1.5054(3) 1.4083(3) 1.2728(2)
O5A O 1.2059(3) 1.1730(3) 1.3014(2)
O6A O 1.4535(3) 1.0998(3) 1.2087(2)
N1A N 1.0111(3) 1.1627(3) 1.1146(3)
N2A N 0.8037(3) 0.9929(3) 1.0007(3)
C1A C 0.9497(4) 1.0433(4) 1.0321(3)
C2A C 0.7147(5) 1.0726(5) 1.0595(4)
H1A H 0.61320 1.04150 1.04120
C3A C 0.7677(5) 1.2001(5) 1.1470(4)
H2A H 0.70410 1.25520 1.18610
C4A C 0.9186(4) 1.2405(4) 1.1726(4)
H3A H 0.95810 1.32390 1.23170
C5A C 1.0905(5) 1.4059(6) 0.8630(4)
H4A H 1.05910 1.48950 0.91010
H5A H 1.12680 1.42750 0.80010
H6A H 1.00830 1.32900 0.83520
C6A C 1.2129(5) 1.3611(5) 0.9324(4)
C7A C 1.3518(5) 1.3546(5) 0.8974(4)
H7A H 1.36800 1.38640 0.83610
C8A C 1.4666(5) 1.3033(4) 0.9493(4)
C9A C 1.6109(5) 1.3021(5) 0.9045(4)
H8A H 1.62400 1.20460 0.86950
H9A H 1.60980 1.35260 0.84930
H10A H 1.69100 1.34820 0.96600
C10A C 1.1641(5) 1.6525(5) 1.4133(4)
H11A H 1.08670 1.59240 1.43030
H12A H 1.21570 1.72240 1.48230
H13A H 1.12190 1.70060 1.36320
C11A C 1.2714(5) 1.5608(5) 1.3563(4)
C12A C 1.4226(5) 1.6006(5) 1.3997(4)
H14A H 1.45280 1.68320 1.46150
C13A C 1.5303(5) 1.5230(5) 1.3552(4)
C14A C 1.6911(5) 1.5792(5) 1.4072(4)
H15A H 1.72880 1.65060 1.37500
H16A H 1.69910 1.62120 1.48780
H17A H 1.74730 1.50150 1.39160
C15A C 1.1216(5) 1.0513(5) 1.4238(4)
H18A H 1.03650 0.99100 1.37310
H19A H 1.16240 1.00190 1.47330
H20A H 1.09300 1.13830 1.46820
C16A C 1.2365(5) 1.0874(5) 1.3555(4)
C17A C 1.3677(5) 1.0285(5) 1.3577(4)
H21A H 1.38700 0.97690 1.40810
C18A C 1.4705(4) 1.0441(4) 1.2876(4)
C19A C 1.6159(5) 0.9890(5) 1.3065(4)
H22A H 1.69340 1.06880 1.34340
H23A H 1.60730 0.92770 1.35350
H24A H 1.63880 0.93560 1.23470
#END

data_CSD_CIF_XUNYUB
_audit_creation_date 2010-09-24
_audit_creation_method CSD-ConQuest-V1
_database_code_CSD XUNYUB
_database_code_depnum_ccdc_archive 'CCDC 752073'
_chemical_formula_sum 'C38 H48 N4 O12 Sm2'
_chemical_formula_moiety
;
C38 H48 N4 O12 Sm2
;
_journal_coden_Cambridge 1145
_journal_volume 20
_journal_year 2010
_journal_page_first 2114
_journal_name_full 'J.Mater.Chem. '
loop_
_publ_author_name
"G.Zucchi"
"Taewoo Jeon"
"D.Tondelier"
"D.Aldakov"
"P.Thuery"
"M.Ephritikhine"
"B.Geffroy"
_chemical_name_systematic
;
(\m~2~-2,2'-Bipyrimidine)-hexakis(acetylacetonato)-di-samarium
;
_cell_volume   1073.714
_exptl_crystal_colour 'colorless'
_exptl_crystal_density_diffrn 1.629
_exptl_special_details
;
isomorphous with the Eu and Tb analogues

;
_exptl_crystal_description 'parallelepiped'
_diffrn_ambient_temperature 100
#These two values have been output from a single CSD field.
_refine_ls_R_factor_gt 0.0331
_refine_ls_wR_factor_gt 0.0331
_symmetry_cell_setting triclinic
_symmetry_space_group_name_H-M 'P -1'
_symmetry_Int_Tables_number 2
loop_
_symmetry_equiv_pos_site_id
_symmetry_equiv_pos_as_xyz
1 x,y,z
2 -x,-y,-z
_cell_length_a 9.2497(7)
_cell_length_b 9.9437(10)
_cell_length_c 12.4584(13)
_cell_angle_alpha 107.516(5)
_cell_angle_beta 96.940(6)
_cell_angle_gamma 95.639(6)
_cell_formula_units_Z 1
loop_
_atom_type_symbol
_atom_type_radius_bond
C 0.68
H 0.23
N 0.68
O 0.68
Sm 1.98
loop_
_atom_site_label
_atom_site_type_symbol
_atom_site_fract_x
_atom_site_fract_y
_atom_site_fract_z
Sm1 Sm 0.70445(2) 0.74542(2) 0.838459(16)
O1 O 0.8224(3) 0.6657(3) 0.9825(2)
O2 O 0.5430(3) 0.7481(3) 0.9719(2)
O3 O 0.7912(3) 0.5455(3) 0.7216(2)
O4 O 0.4966(3) 0.5830(3) 0.7256(2)
O5 O 0.7970(3) 0.8333(3) 0.6990(2)
O6 O 0.5412(3) 0.8965(3) 0.7880(2)
N1 N 0.9903(3) 0.8360(4) 0.8857(3)
N2 N 1.1962(3) 1.0048(3) 0.9987(3)
C1 C 1.0514(4) 0.9560(4) 0.9690(3)
C2 C 1.2850(4) 0.9244(5) 0.9403(4)
H1 H 1.38580 0.95470 0.95770
C3 C 1.2324(5) 0.7953(5) 0.8533(3)
H2 H 1.29570 0.73900 0.81410
C4 C 1.0839(4) 0.7572(4) 0.8293(3)
H3 H 1.04540 0.67290 0.77140
C5 C 0.9105(5) 0.5915(6) 1.1377(4)
H4 H 0.94260 0.50850 1.08960
H5 H 0.87470 0.56980 1.20060
H6 H 0.99160 0.66740 1.16590
C6 C 0.7883(5) 0.6368(5) 1.0696(4)
C7 C 0.6499(5) 0.6429(5) 1.1029(4)
H7 H 0.63320 0.60920 1.16290
C8 C 0.5342(5) 0.6956(4) 1.0531(3)
C9 C 0.3901(5) 0.6960(5) 1.0982(4)
H8 H 0.37580 0.79250 1.13470
H9 H 0.39180 0.64470 1.15230
H10 H 0.31110 0.65120 1.03620
C10 C 0.8463(5) 0.3519(6) 0.5756(4)
H11 H 0.92270 0.41510 0.56270
H12 H 0.79720 0.28660 0.50390
H13 H 0.88850 0.29960 0.62190
C11 C 0.7362(5) 0.4379(5) 0.6362(4)
C12 C 0.5860(5) 0.3969(5) 0.5946(4)
H14 H 0.55800 0.31600 0.53120
C13 C 0.4755(5) 0.4689(5) 0.6416(3)
C14 C 0.3170(5) 0.4077(5) 0.5911(4)
H15 H 0.28540 0.33460 0.62230
H16 H 0.30870 0.36780 0.50980
H17 H 0.25630 0.48190 0.60900
C15 C 0.8789(5) 0.9573(5) 0.5795(4)
H18 H 0.96510 1.01030 0.63160
H19 H 0.84070 1.01440 0.53580
H20 H 0.90400 0.87200 0.52900
C16 C 0.7635(5) 0.9183(5) 0.6456(3)
C17 C 0.6309(5) 0.9749(5) 0.6439(4)
H21 H 0.61210 1.02810 0.59520
C18 C 0.5256(4) 0.9562(4) 0.7110(3)
C19 C 0.3803(5) 1.0104(5) 0.6930(4)
H22 H 0.30400 0.93100 0.65750
H23 H 0.38690 1.06940 0.64490
H24 H 0.35780 1.06500 0.76530
Sm1A Sm 1.29555(2) 1.25458(2) 1.161541(16)
O1A O 1.1776(3) 1.3343(3) 1.0175(2)
O2A O 1.4570(3) 1.2519(3) 1.0281(2)
O3A O 1.2088(3) 1.4545(3) 1.2784(2)
O4A O 1.5034(3) 1.4170(3) 1.2744(2)
O5A O 1.2030(3) 1.1667(3) 1.3010(2)
O6A O 1.4588(3) 1.1035(3) 1.2120(2)
N1A N 1.0097(3) 1.1640(4) 1.1143(3)
N2A N 0.8038(3) 0.9952(3) 1.0013(3)
C1A C 0.9486(4) 1.0440(4) 1.0310(3)
C2A C 0.7150(4) 1.0756(5) 1.0597(4)
H1A H 0.61420 1.04530 1.04230
C3A C 0.7676(5) 1.2047(5) 1.1467(3)
H2A H 0.70430 1.26100 1.18590
C4A C 0.9161(4) 1.2428(4) 1.1707(3)
H3A H 0.95460 1.32710 1.22860
C5A C 1.0895(5) 1.4085(6) 0.8623(4)
H4A H 1.05740 1.49150 0.91040
H5A H 1.12530 1.43020 0.79940
H6A H 1.00840 1.33260 0.83410
C6A C 1.2117(5) 1.3632(5) 0.9304(4)
C7A C 1.3501(5) 1.3571(5) 0.8971(4)
H7A H 1.36680 1.39080 0.83710
C8A C 1.4658(5) 1.3044(4) 0.9469(3)
C9A C 1.6099(5) 1.3040(5) 0.9018(4)
H8A H 1.62420 1.20750 0.86530
H9A H 1.60820 1.35530 0.84770
H10A H 1.68890 1.34880 0.96380
C10A C 1.1537(5) 1.6481(6) 1.4244(4)
H11A H 1.07730 1.58490 1.43730
H12A H 1.20280 1.71340 1.49610
H13A H 1.11150 1.70040 1.37810
C11A C 1.2638(5) 1.5621(5) 1.3638(4)
C12A C 1.4140(5) 1.6031(5) 1.4054(4)
H14A H 1.44200 1.68400 1.46880
C13A C 1.5245(5) 1.5311(5) 1.3584(3)
C14A C 1.6830(5) 1.5923(5) 1.4089(4)
H15A H 1.71460 1.66540 1.37770
H16A H 1.69130 1.63220 1.49020
H17A H 1.74370 1.51810 1.39100
C15A C 1.1211(5) 1.0427(5) 1.4205(4)
H18A H 1.03490 0.98970 1.36840
H19A H 1.15930 0.98560 1.46420
H20A H 1.09600 1.12800 1.47100
C16A C 1.2365(5) 1.0817(5) 1.3544(3)
C17A C 1.3691(5) 1.0251(5) 1.3561(4)
H21A H 1.38790 0.97190 1.40480
C18A C 1.4744(4) 1.0438(4) 1.2890(3)
C19A C 1.6197(5) 0.9896(5) 1.3070(4)
H22A H 1.69600 1.06900 1.34250
H23A H 1.61310 0.93060 1.35510
H24A H 1.64220 0.93500 1.23470
#END
